gem5 Simulator System.  http://gem5.org
gem5 is copyrighted software; use the --copyright option for details.

gem5 compiled Nov 11 2018 09:51:25
gem5 started Apr 23 2019 16:42:20
gem5 executing on volvo
command line: /export/homeO3/jcyuan/gem5_nvmain_test/gem5-nvmain-hybrid-simulator-master/gem5-stable/build/X86/gem5.fast -d /export/homeO3/jcyuan/gem5_nvmain_test/gem5-nvmain-hybrid-simulator-master/gem5-stable/test_jc --stats-file test_1_gem5.txt /export/homeO3/jcyuan/gem5_nvmain_test/gem5-nvmain-hybrid-simulator-master/gem5-stable/configs/example/se_sr.py -c test_1 --cpu-type=timing --mem-type=NVMainMemory --nvmain-config=/export/homeO3/jcyuan/gem5_nvmain_test/gem5-nvmain-hybrid-simulator-master/nvmain/Config/hybrid.config --mem-size=1152MB -n 3
Global frequency set at 1000000000000 ticks per second
NVMainControl: Reading NVMain config file: /export/homeO3/jcyuan/gem5_nvmain_test/gem5-nvmain-hybrid-simulator-master/nvmain/Config/hybrid.config.
Creating hook MultiQueueMigrator
promotion channel is0
NVMain: GlobalEventQueue: Added a memory subsystem running at 400MHz. My frequency is 2000MHz.
Reading channel config file: /export/homeO3/jcyuan/gem5_nvmain_test/gem5-nvmain-hybrid-simulator-master/nvmain/Config/dram.config
Created a First Ready First Come First Serve memory controller!

defaultMemory.channel0.FRFCFS capacity is 2048 MB.
Reading channel config file: /export/homeO3/jcyuan/gem5_nvmain_test/gem5-nvmain-hybrid-simulator-master/nvmain/Config/pcm.config
Created a First Ready First Come First Serve memory controller!

defaultMemory.channel1.FRFCFS capacity is 2048 MB.
Reading channel config file: /export/homeO3/jcyuan/gem5_nvmain_test/gem5-nvmain-hybrid-simulator-master/nvmain/Config/pcm.config
Created a First Ready First Come First Serve memory controller!

defaultMemory.channel2.FRFCFS capacity is 2048 MB.
Reading channel config file: /export/homeO3/jcyuan/gem5_nvmain_test/gem5-nvmain-hybrid-simulator-master/nvmain/Config/pcm.config
Created a First Ready First Come First Serve memory controller!

defaultMemory.channel3.FRFCFS capacity is 2048 MB.
0 W 0x0 0026002900400005003800400000000000000000000d7d580000000000000040000000000040036000000001003e0002000000000000000003010102464c457f 0
0 W 0x40 0000000600000001000000000020000000000000000a537a00000000000a537a0000000000400000000000000040000000000000000000000000000500000001 0
0 W 0x80 0000000000000158000000040000000400000000002000000000000000003f500000000000000e1000000000006a600000000000006a600000000000000a6000 0
0 W 0xc0 00000000006a600000000000000a6000000000040000000700000000000000040000000000000020000000000000002000000000004001580000000000400158 0
0 W 0x100 000000000000000000000000000000000000000000000000000000066474e55100000000000000080000000000000050000000000000002000000000006a6000 0
0 W 0x140 00000000006a61480000001200000006000000020000000000554e47000000010000001000000004000000000000001000000000000000000000000000000000 0
0 W 0x180 000000000046d030000000000000002500000000006a6138000000000045a8f0000000000000002500000000006a614000000000004275f00000000000000025 0
0 W 0x1c0 000000000000002500000000006a6120000000000040c9e0000000000000002500000000006a61280000000000427750000000000000002500000000006a6130 0
0 W 0x200 00000000006a6108000000000042c8f0000000000000002500000000006a6110000000000040c410000000000000002500000000006a6118000000000045a8b0 0
0 W 0x240 0000000000459c90000000000000002500000000006a60f800000000004582a0000000000000002500000000006a6100000000000042b5700000000000000025 0
0 W 0x280 00000000e90000000068002a5e4a25ff00000000e90000000068002a5e5225ff0000000000000000c308c483480007d9dde800000232e800000103e808ec8348 0
0 W 0x2c0 00000000e90000000068002a5e2a25ff00000000e90000000068002a5e3225ff00000000e90000000068002a5e3a25ff00000000e90000000068002a5e4225ff 0
0 W 0x300 00000000e90000000068002a5e0a25ff00000000e90000000068002a5e1225ff00000000e90000000068002a5e1a25ff00000000e90000000068002a5e2225ff 0
0 W 0x340 c7c74800400ea0c1c74800400e60c0c7495450f0e48348e289485ed18949ed310000000000000000000000000000000000000000e90000000068002a5e0225ff 0
0 W 0x380 0ef88348006a6e102d4855006a6e17b8001f0f0000000000841f0f2e66c308c48348d0ff0274c08548002a5d41058b4808ec83489090f4000001c7e8004004fe 0
0 W 0x3c0 fec148006a6e10ee814855006a6e10be0000000000841f0f2e6666666666c35d0000000000841f0f66e0ff006a6e10bf5d1174c0854800000000b81b76e58948 0
0 W 0x400 2a69e7058b4855767500002a69e93d800000441f0f66c35d001f0fe0ff006a6e10bf5d0b74c0854800000000b81574fed148c601483fe8c148f08948e5894803 0
0 W 0x440 48c414ff41002a69ad05894801c083480000000000841f0f2e662573d8394801eb834803fbc148006a6040eb8148006a6040bc41006a6048bb535441e5894800 0
0 W 0x480 0000000000841f0f2e666666666666c3f301002a697105c65d5c415b0007cf0ce800497a88bf0a74c085480047d3b0b8ffffff20e8e572d83948002a69a2058b 0
0 W 0x4c0 4855eaebd0ffee74c0854800000000b89066ffffff02e95d0875003f8348006a6050bf0007cca3e800497a88bf006a6e40be0f74e58948c085480047d180b855 0
0 W 0x500 11fee800000000b80047f7adbfc689fc458b000012b2e80047f788bff27e09f87d8301f8458301fc458308eb00000000f845c700000000fc45c710ec8348e589 0
0 W 0x540 3d83c0310c7410245489480c24748918247c8948c0854800000090ec8148cb894853c5894c55cc894d00000000b8544100000000801f0fc3c900000000b80000 0
0 W 0x580 4808c78348078b480000441f0f002a5ab5058948002a83dc3d8948000000b024848b4808c27c8d481024548b480c24446348002a63fa0589c0940f00ffbffa7b 0
0 W 0x5c0 0000f78e0f000206113d002a96d21589c28900000180850fc985002a96e20d8b0000019d880fc08500012e78e82e75d285002a63b9158b00012447e8f475c085 0
0 W 0x600 4d00000028250c89486400000088248c8948088b48000000d7840fc08548002a5a4e058b48000005c5e80c247c8b1024748b48002a837b158b480000092ae800 0
0 W 0x640 850fc085002a59fc058b00000cfae8ef8948f631d2310c74ed854800012f0be80c247c8b1024748b48002a8331158b4800000d20e8e7894cf631d2310c74e485 0
0 W 0x680 25048b486468244489480000030025048b4864000000da850fc0850000091be820247c8d48d3ff0c247c8b1024748b48002a82f8158b481274db854800000123 0
0 W 0x6c0 171ee80047f7b3bf0000441f0f6600000a0ee8c789182454ff0c247c8b1024748b48002a82aa158b480000030025048948642024448d487024448948000002f8 0
0 W 0x700 7ffff0e181c0b70f000000002514034864ffffffd0c2c748310f0a0000008e2484c6ff0000008f2484c600000088248c8d4800000000000000882484c7480000 0
0 W 0x740 f7d0bffffffe73e9fffffe7e860fc289c139fffffec8e900000088248c8948c1314800000088248c3348d1314823e2c14829e1c14808e0c148007fff00e28100 0
0 W 0x780 0000441f0f0000000000841f0f2e66fffffed3e900000014e80000ffa9e8ff31ffffff4b850fd284c031c2940fffbff86d0dfff0ffbff874e800001699e80047 0
0 W 0x7c0 00000002bf00000001bec031000000df840ffff883000101e5e800000001bf00000001bec0313874fff883000101fbe800000001bec031ff3100000098ec8148 0
0 W 0x800 00000001bfe28948f6313a75c0850000ff97e80047f7f8bf00020001bec031d231bb7509388364ffffffd0c0c748c300000098c481486974fff883000101cbe8 0
0 W 0x840 8a7509388364ffffffd0c0c748fdebf40000000000841f0fffffff72840f0000010728247c81481775000020003d0000f000251824448b2775c0850000ff2be8 0
0 W 0x880 81481275000020003d0000f000251824448b2275c0850000fec6e800000001bf00000002bee28948387502f8830000ff36e80047f802bf00020000bec031d231 0
0 W 0x8c0 bee289483c7501f8830000fed2e80047f802bf00020000bec031d231ffffff10850f09388364ffffffd0c0c748fdebf4001f0fffffff3d840f0000010328247c 0
0 W 0x900 0000441f0ffdebf400000000801f0ffffffec3840f0000010328247c81481675000020003d0000f000251824448b2675c0850000fe62e800000001bf00000001 0
0 W 0x940 054800000020002a922205c74800000900002a922505c748006a7280002a924805c74800000001002a924b05c74800000040002a692e05c748002a5829058b48 0
0 W 0x980 8b4818ec8348535554415541564157410000000000841f0f2e66666666c3c031002a57d0058948000009000548e0e0834800000001002a923905c7480000091f 0
0 W 0x9c0 8b48f2750738832776c2394838c083480000441f0f35eb1077c2394810148d48ca294806e2c14800000000d50c8d48002a92d7158b485674c08548002a92a305 0
0 W 0xa00 067c8d4c003d7c8d48d231002a573b058b48e43145f63145ed3145db31f589480000441f0f6614ebeb420f48de394810688b4c20708b4c28608b4cf589483058 0
0 W 0xa40 894cd231ff1c448d497974db8548c12148d8f7480000003e002a641405c748e88948ff284c8d48000100c7e8ff014cfeaf0f4cc78949f6f748f8894ce7014dff 0
0 W 0xa80 9eb800001002bf08244c8b480000ce5ce801002a63f905c6002a703805894808244c8948f2894cee894c002a640a3d8948393c8d48c72948c3af0f48f3f748ff 0
0 W 0xac0 3d8948393c8d48e7294ce0894cff894c0000000000841f0f6600001339e80047f810bf3374c085050f10768948368948006a6e90080f44c74939348d4a000000 0
0 W 0xb00 000001002a6fa705c748002a6f8a35894c002a6f892d894c002a6fa025894c002a6faf1d8948db8548fc002a6e9d25800000000000841f0f2e6690eb002a639c 0
0 W 0xb40 dcaf0f49c48949f3f748d231ff1c448d496974006a76a0002a673b05c748006a7280002a904e05c74800000001002a905105c74800000040002a673405c74800 0
0 W 0xb80 dd058948c5430f4800000020b8002a55bd05894820fd8348000009000548e0e08348002a8ffa1d89481f03448d4800000001002a903605c748002a55e9058b48 0
0 W 0xbc0 2a90a7158b487674c08548002a9073058b4828ec83485355544155415641574100401f0fa0eb01b30000441f0f66c35f415e415d415c415d5b18c48348002a8f 0
0 W 0xc00 834910688b4c20708b4c28688b4830608b4cf2750738834773d0394838c083480000441f0f55eb1072d0394810148d48ca294806e2c14800000000d50c8d4800 0
0 W 0xc40 001f182444c748ffffffe0102444c7480000441f0f662deb00000020bc4100000920bf0000001f182444c748ffffffe0102444c748e3894c000001e8870f20fc 0
0 W 0xc80 0000003e002a61c005c74818244c8b480000fe70e83f3c8d49e0e783491f057c8d4c002a54d2058b48ed31f63145ed3145db3100000020bc4100000920bf0000 0
0 W 0xcc0 c6002a6de105894808244c8948f2894cee894c002a61b33d8948393c8d48c72948c3af0f48f3f748ff894cd231ff1d448d487274db854810244c2348080c8d48 0
0 W 0xd00 9066000010e2e80047f810bf2c74c085050f10768948368948006a6e90080f44c74939348d4a0000009eb800001002bf08244c8b480000cc05e801002a61a205 0
0 W 0xd40 4c002a6d392d894c002a6d502d8948002a6d5f1d8948db8548fc002a6c4d25800000000000841f0f2e6697eb002a614c3d8948393c8d48ef2948e88948ff894c 0
0 W 0xd80 486974006a76a0002a64eb05c748006a7280002a8dfe05c74800000001002a8e0105c74800000040002a64e405c74800000001002a6d5705c748002a6d3a3589 0
0 W 0xdc0 6d05894820fc8349000009000548e0e08348002a8daa1d89481f03448d4800000001002a8de605c748002a5399058b48ddaf0f48c58948f3f748d231ff1d448d 0
0 W 0xe00 e3894c0000090024bc8d49ff24448d4900401f0fa0eb01b30000441f0f66c35f415e415d415c415d5b28c48348002a8d8d058948c4430f4900000020b8002a53 0
0 W 0xe40 0000000000841f0f2e661774db854803fbc148006a6028eb8148006a6030bb53900000000000841f0f2e66fffffe42e91024448948d8f748e0894c1824448948 0
0 W 0xe80 f489495441f6854dd5894903fec1495541006a6020ee8149006a6020be4156410000000000841f0f2e666666660007e8d5e95bf37501eb8348006a6020dd14ff 0
0 W 0xec0 854dfffff382e803fec149006a6020ee8149006a6028be41e872f3394c01c38348006a6020dd14ffef89e6894cea894c0000000000841f0fdb31227453fd8955 0
0 W 0xf00 aaaaaaaaaaabb84800400280bd41554100000000801f0fc35e415d415c415d5be872f3394c01c38348006a6020dd14ffef89e6894cea894c001f0fdb311d74f6 0
0 W 0xf40 00401f0f17ebed3100400178b800400190bbfffff20a258b4c477525fffff21b3d834574ed854d08ec83485355e8af0f4c03fdc149544100400178ed8149aaaa 0
0 W 0xf80 0000000000841f0f00000e68e80047f848bfc35d415c415d5b08c48348dd7224048949ed394c1050ff01c583481b7525fa834818c38348238b4cd8894808538b 0
0 W 0xfc0 4ac0854805e2c148c289480824448b490000441f0f665874e4854d268b4c08ec8348fb8953f58948555441d5894155410000000000841f0f6600012b39e9f631 0
0 W 0x1000 00ab850f00458948c0854824048b49d575c0854820e98348487402fa83487e7404fa8348000000b4840f03fa8348118b48082444894901e883482b74f0224c8d 4096
0 W 0x1040 4808428b481020548d4adf8905e0c14800401f0f0000f674e8df89f07200497a18fd814808c583480055ff107300497a18fd814800497a10bd1e74ed84450000 4096
0 W 0x1080 00000030250433486411c8c148107a8b4808428b481020548d4ade8905e0c1480000000000841f0f66ffffff59e9d0ff00000030250433486411c8c14810728b 4096
0 W 0x10c0 9066fffffee7e900658b4c000093fbe8e7894cffffff03e9d0ff00000030250433486411c8c1481804448b4905e0c1480000000000841f0f66ffffff29e9d0ff 4096
0 W 0x1100 00be840f03fa8348118b480843894801e883482e74f01a4c8d48c0854805e2c148c2894808438b4800401f0f5a74db8548002a50691d8b4808ec834853fd8955 4096
0 W 0x1140 00401f0f137300497a18fb814800497a10bb000000af850f002a5010058948c08548038b48d275c0854820e983484e7402fa834800000084840f04fa83480000 4096
0 W 0x1180 00000030250433486411c8c14810728b4808428b481018548d48ef8905e0c1480000000000841f0f2e660000f54ae8ef89f17200497a18fb814808c3834813ff 4096
0 W 0x11c0 0000000000841f0f66ffffff21e9d0ff00000030250433486411c8c148107a8b4808428b481018548d48ee8905e0c1480000000000841f0f66ffffff51e9d0ff 4096
0 W 0x1200 0000441f0f0000000000841f0f2e66fffffedee9002a4f4c1d8b48000092cbe8df8948fffffefbe9d0ff00000030250433486411c8c1481803448b4805e0c148 4096
0 W 0x1240 90c031000000c8840fc0854d038b4c00000410850f002a68b535b10f0deb0000041f850f002a68c435b10ff0107400002a898e3d83c031fb894800000001be53 4096
0 W 0x1280 2075f68548ff798d4820ea8348328b480000441f0f18ebf18948d008548d4905e1c148437500023c834a04e2c1480136548d48ff718d483f74c9854808488b49 4096
0 W 0x12c0 00000102c7481000548d4a0848894905e0c14801c18348c889484c7420f98348a0ebd089495774d28548c0894c000000000840c749108b49e875c98548f98948 4096
0 W 0x1300 010840c74810508d480e74c08548c35bd0894800000373850f002a67f90dff0ceb00000381850f002a68070dfff00f7400002a88d03d8301002a88c705834800 4096
0 W 0x1340 48fb89485300000001bef58948c031550000000000841f0f2e66d1eb038948108948138b48ae74c08548d2310000804ce800000001bf00000410beb5eb000000 4096
0 W 0x1380 9066c031c1894900000105840fc08548002a4dc8058b4800000316850f002a677d35b10f0deb00000325850f002a678c35b10ff0107400002a88563d8318ec83 4096
0 W 0x13c0 2875ff8548ff418d4c20ee83483e8b480000441f0f18ebf98948d009748d4905e1c1484b75000e3c834a04e6c148013f748d48ff798d483f74c9854808498b49 4096
0 W 0x1400 748d4a0849894905e0c14801c18348c889487d7420f9834800401f0f9cebc98949c8894c0000008c840fc98548000000000841c749098b49e875c98548c1894c 4096
0 W 0x1440 642274ffffffffb8f6854800000269850f002a66b10dff0ceb00000277850f002a66bf0dfff00f7400002a87883d8301002a877f0583480000000106c7481008 4096
0 W 0x1480 10be84eb000000010840c74810708d480e74c08548c8894cc35d5b18c483480000000406c748c03118568948085e8948106e894811c3c14800000030251c3348 4096
0 W 0x14c0 0000000000841f0f2e6666bbeb002a4c85058948088948002a4c8f0d8b48ffffff6f840f0824548b48c08548f63100007ecee8082454894800000001bf000004 4096
0 W 0x1500 8b49000001bf850f002a65e835b10f0deb000001ce850f002a65f735b10ff0107400002a86c13d8310ec8348fb89485300000001bef5894855cc8949c0315441 4096
0 W 0x1540 0000441f0f18ebf98948d009748d4905e1c1484b75000e3c834a04e6c148013f748d48ff798d483f74c9854808498b49c031c1894900000105840fc085482404 4096
0 W 0x1580 89487f7420f9834800401f0f9cebc98949c8894c0000008e840fc98548000000000841c749098b49e875c98548c1894c2875ff8548ff418d4c20ee83483e8b48 4096
0 W 0x15c0 0f002a65210dff0ceb00000125850f002a652f0dfff00f7400002a85f83d8301002a85ef0583480000000106c7481008748d4a0849894905e0c14801c18348c8 4096
0 W 0x1600 c08548c8894cc35c415d5b10c483480000000406c748c03118568948085e8948106e894811c3c14800000030251c3348642274ffffffffb8f685480000011785 4096
0 W 0x1640 eb24048949088948240c8b49ffffff6d840f0824548b48c08548f63100007d3ce8082454894800000001bf00000410be82eb000000010840c74810708d480e74 4096
0 W 0x1680 48fffffc6ee900000080c4814800010b6de800000080ec8148002a64793d8d48fffffbd1e900000080c4814800010b5ce800000080ec8148002a64983d8d48c1 4096
0 W 0x16c0 3d8d48fffffd78e900000080c4814800010b2fe800000080ec8148002a643b3d8d48fffffccbe900000080c4814800010b1ee800000080ec8148002a645a3d8d 4096
0 W 0x1700 0000441f0ffffffecae900000080c4814800010af1e800000080ec8148002a63fd3d8d48fffffe22e900000080c4814800010ae0e800000080ec8148002a641c 4096
0 W 0x1740 e0ff48244c894c402444894c000000cf24948d48d02948fe894838244c89482824748948004017a0b80000000085148d483024548948c0b60f000000d8ec8148 4096
0 W 0x1780 000030042444c7000000082404c7e28948002a50a13d8b48000000e024848d488142290f914a290fa152290fb15a290fc162290fd16a290fe172290ff17a290f 4096
0 W 0x17c0 504e058b4c0000ab35e818ec8348f82464894cfd8948f0246c8948e8245c8948001f0fc3000000d8c481480001484be810244489482024448d48082444894800 4096
0 W 0x1800 eb0000014f850f32b10ff00c7400002a83ad3d83c03100000001be3774084a394c00000010250c8b4c6400000088908b495178c3894c0038834166c48949002a 4096
0 W 0x1840 0000d8808b49ffffffff000000c080c74100000081850fc085000000c0808b4101044283084a894c002a4ff8058b4c00000088908b4900000144850f32b10f09 4096
0 W 0x1880 83000000000842c7482475044289c08501e88304428b00000088938b483878003b8366ffffffffbd001f0f6b74c58948e0394c3850ffc7894cee8948e2894c00 4096
0 W 0x18c0 0000441f0f66ffffff80e9a375fff883c318c483481024648b4c08246c8b48241c8b48e889000000ce850f0aff08eb000000d8850f0afff00b7400002a831a3d 4096
0 W 0x1900 78c68948003b8366ffffff65e9c58948c5460f487ffffffffd81487fffffffb801c583482847894801c083480a00c6687330473b4828478b48002a4f493d8b48 4096
0 W 0x1940 5de80000000abe00079e77e8f7894853750aff04eb59750afff0077400002a827c3d83000000000842c7481c75044289c08501e88304428b00000088938b4830 4096
0 W 0x1980 e900000080c4814800010868e800000080ec81483a8d48fffffea1e900000080c4814800010853e800000080ec81483a8d488eebffffff0c840ffff883000006 4096
0 W 0x19c0 8d48ffffff3095894800000718ec8148535441554156415741e58948c0b60f5500401f0f95eb00000080c481480001084de800000080ec81483a8d48ffffff17 4096
0 W 0x1a00 d16a290fe172290ff17a290fe0ff0047f86fbfffffff488d894cffffff4085894ccf558d48d02948ffffff388d8948fffff8d4bd8900401a54b8000000008514 4096
0 W 0x1a40 ffff20858d48ffffff08858948fffff8d8b5894800000030ffffff0485c700000010ffffff0085c710458d488142290f914a290fa152290fb15a290fc162290f 4096
0 W 0x1a80 01be850f0038800974c0854800012cdce8fffffef0858948ffffff20858d48fffffee885894810458d48fffffee0858948ffffff00858b48ffffff10858948ff 4096
0 W 0x1ac0 90e43145f63145c58949000001b0840fff844538b60f44fffff8d8858b480000019e840ffffff8d08589fff8830000ecf6e80047f882bf00000902bec0310000 4096
0 W 0x1b00 49e9294ceb894cc18948427425ff804100401f0fdc7501788d4873017880e67501788d4825fa801774d28410b60f0000c7dee800000025be001f0f14eb10b60f 4096
0 W 0x1b40 8bb77573017d80410000441f0f8debde89414a74ff8445d48949007db60f45084a8948015e8d411062894c1a8948f0e283480f24548d48e8894c30ec8348c589 4096
0 W 0x1b80 c8894cc931cb634c00401f0f8eebc189480000a781e8df894802c58349188b48ffffff00958908c283ffffff10850348d08900000101870f2ffa83ffffff0095 4096
0 W 0x1bc0 0000000000841f0f66e0894c003c8d4af0294cc5894d10e8834800148d49f0e0834904e6c14904e0c1480f24448d4cf68945c66349c4294810c0834804e0c148 4096
0 W 0x1c00 894cc6894cca894c0000441f0f6600000014bf41fffff8d095634cdb75e1894c10408b48fa394810ea83480860034c0872894808708b48328948cc8949308b48 4096
0 W 0x1c40 c3c95f415e415d415c415bd8658d48000000e2850fd285fffff8d4958b00000001b84875f4394d6975c985fffff8d48d8be974c68949fcf88348050ff88944d7 4096
0 W 0x1c80 c0310000fa82e800000003bffffffee0958d48fffff8d8b58b48fffffefae9ffffff0895894808508d48ffffff08858b48fffffe53e900000002fffff8d085c7 4096
0 W 0x1cc0 ffff58840ffffff8c8858948fff883480000fc30e8fe894cc72149d8f748043c8d4d00000003ba00000022b9ffffffffb841ff31c93145002a800f058b48a1eb 4096
0 W 0x1d00 8548002a76623d8748fffff8c8bd8b480000c6e37cdf39410000b788e810c5834901c78341c7894800758b4908558b490000441f0fff314504c08348388944ff 4096
0 W 0x1d40 894102f88300010775e8df894800000040befffffce09d8d4800011e69e805759066c084067e01fffff8d4bd83ffffff06e90000fbf2e8378bffffff12840fff 4096
0 W 0x1d80 a9be0000001dbafffff8d0bd8b0001084de8087b8d48ff24748d41fffff8d0958b0000eaeae8fffff8e0ad8d4c0047f88bbe0000001dbafffff8d0bd8bdf7ec4 4096
0 W 0x1dc0 ea87e8ee894cda8948fffff8d0bd8b187edb8548d863480000ea40e8e78944ee894c00000400bac489410000e9f3e8c0310047f8c7bff6310000eac1e80047f8 4096
0 W 0x1e00 9066eaebfffffba4e8c03100000001bf00496dfbbeda894800401f0ffb8948530000000000841f0fffffff4ae9050f00000003b8fc6349d074d8394898480000 4096
0 W 0x1e40 0000242c850f0afff00b7400002a7d6b3d83000000000842c7482475044289c08501e88304428b00000088908b483878003883663e74c08548002a6121058b48 4096
0 W 0x1e80 0ceb00002409850f002a60980dfff00f7400002a7d313d8300000000002a60b005c7482f75002a60b90589c08501e883002a60c4058b00002422850f0aff08eb 4096
0 W 0x1ec0 0000000000841f0f2e6666c3f3ed75d28548c14f0f48c83948128b48104a63481374d2854818472b48f0894860578b489066c3f3000023fb850f002a608a0dff 4096
0 W 0x1f00 01000f81484f8b4858478b4810578b480000441f0fc308478948184789484857894848478b4818578b485847894810578948fffffeff278158578b4810478b48 4096
0 W 0x1f40 53894838538b4810433b48337501e680138b4a77fb89485320473b4828478b480000441f0fc30847894848578948184f89481047894818578b48585789480000 4096
0 W 0x1f80 be000000d8878b480000441f0f66d5eb1853894850538b4800000000801f0fc35bc03120438948284389483043894808438948fffff7ff238110438948047618 4096
0 W 0x1fc0 ff18408b48000000d8878b48ffffffff000000c087c70a75c085000000c0878b0000000000841f0f2e66666666669ceb28438b48d374fff8831850ffffffffff 4096
0 W 0x2000 894801c2834802b60f08538b480f74fff8832050fffb894853000000d8878b480000000000841f0f2e66c3ffffffffb80000000000841f0f2e666666666666e0 8192
0 W 0x2040 0000000000841f0f2e666666666666e0ff48408b48d231d189000000d8878b48001f0fe0ff40408b48000000d8878b480000000000841f0f2e666666c35b0853 8192
0 W 0x2080 0000001047c748000000000847c748c08548000000001847c748000000004047c748000000003847c7483789000000007447c7fbad0000ce8100000088878b48 8192
0 W 0x20c0 0000006047c748000000005847c748000000005047c748000000004847c748000000006847c748000000003047c748000000002847c748000000002047c74800 8192
0 W 0x2100 0000000000841f0f2e66666666c3c0310000000000841f0f2e66666666c3f3000000000840c748000000000440c70000000000c7157400000000008087c76600 8192
0 W 0x2140 ef23830374fff8833050ffdf8948000000d8838b481d74f03840ff40b60fff508d480d7618473b48fb894808478b48530000000000841f0fc3ffffffffc0c748 8192
0 W 0x2180 90c35bef2383ff40b60f08578948ff508d481276fb89485318473b4808478b480000000000841f0f2e666666666666ecebc0b60f085789480000441f0f66c35b 8192
0 W 0x21c0 0000000000841f0f2e661874ff488d480aff78802c73c6394806048d48c263480000000000841f0f2e66c35be675fff8833050ffffffffffbe000000d8878b48 8192
0 W 0x2200 c289481374c7394800401f0f16eb0b75c739481b74c0854860428b4808578b4800401f0fc33a048d00401f0fc3c82901e883f2750a398001e983481373ce3948 8192
0 W 0x2240 028b1574d28548ffffffffb808578b480000000000841f0f66c310462b10478b0000000000841f0f66c3028948078b48906660c28348c3f3f075c08548008b48 8192
0 W 0x2280 c3f30274fa3948ffffffffb808568b480000000000841f0f2e66666666ebebc28910422b08428b48001f0fc3f3d02910478bc28918422b08428b48137501c4f6 8192
0 W 0x22c0 31c101489848084a8948184a894810468b48428948484a8b48104a894818428b4858428948584a8b480a89fee58010428b48627401c5f60a8b4978c08510468b 8192
0 W 0x2300 0000000000841f0f2e66c4eb184a8b480000000000841f0f66c3084a8948c031c101489848104a8b48297401c5f60a8b0000000000841f0f2e66c3084a8948c0 8192
0 W 0x2340 0000000000841f0fc3ffffffffc0c7489066adeb10468b48428948084a8948187a8948104a894818428b4858428948584a8b480a89487a8b4801cd8010428b48 8192
0 W 0x2380 0000000000841f0f2e66c3ffffffffb80000000000841f0f2e66666666c3c0310000000000841f0fc3ffffffffc0c7480000000000841f0f2e66c3ffffffffb8 8192
0 W 0x23c0 0000000000841f0f2e6666c368478b480000000000841f0f2e66666666c3c0310000000000841f0fc3002a4049058b480000000000841f0f2e6666666666c3f3 8192
0 W 0x2400 00001ea6850f002a5b1635b10ff0107400002a77b03d83c03100000001be3474002a5b381539480000001025148b48640000000000841f0f2e666666c3f88948 8192
0 W 0x2440 3d8300000000002a5ada05c7482f75002a5ae30589c08501e883002a5aee058b9066c301002a5af70583002a5b0215894800001e97850f002a5b0735b10f0deb 8192
0 W 0x2480 002a5a9005c700000000002a5a9605c70000000000841f0f2e666666c3f300001e63850f002a5ab40dff0ceb00001e71850f002a5ac20dfff00f7400002a775b 8192
0 W 0x24c0 0b83127540538948386b8948c98536740103f60574ff8548f58948387f8b4828ec8348fb8948f8246c8948f0245c8948c300000000002a5a8905c74800000000 8192
0 W 0x2500 8148fe294800000fffc68148240c89082454894840738b480000441f0f66c328c4834818245c8b4820246c8b48fe2383c328c4834818245c8b4820246c8b4801 8192
0 W 0x2540 584789481057894810478b48078958578b48fee4804d7401c4f6fb8948078b530000000000841f0f2e6666669eeb0824548b48240c8b0000f3f6e8fffff000e6 8192
0 W 0x2580 9066d6eb487f8b480000441f0fc35b000000005043c748000000005843c748000000004843c74800007f57e8487b89481843894808438948187f8b4848438b48 8192
0 W 0x25c0 0f14fd8349eb460f4ceb394cfd294900000081830fef394c306d8b4c287d8b4890000000df840fd3894853fd894855f4894954415541d68949d28548c0315641 8192
0 W 0x2600 834910e8834824046f0f41f30000009c860fcf394810778d4810244c8d49000000be850f0fc7f640000000c8860fff458d490ffd83496574ed854d0000009b87 8192
0 W 0x2640 0f41000000d8858b484174db8548eb294c284d8948ec014d2f0c8d4aec7901e8834801c2834832884001c1834831b60f90000000b8840f077f0f66f2894810fd 8192
0 W 0x2680 5d5bd82948f0894c00401f0fbbeb284589480000ae02e8ec014dea894ce6894c0000441f0fffffff45e901eb834801c483492a74fff8831850ffef89482434b6 8192
0 W 0x26c0 cf394801c78348178801c0834810b60f0000000000841f0f66e0894c2f0c8d4a00000000801f0fffffff5b870ff439490000000000841f0f66c35e415d415c41 8192
0 W 0x2700 8948000000de840fc28948c08548f5294818778b4860478b4818ec8348fb894853e5894c55f48949544155415641574190ffffff59e9f18948ffffff61e9ee75 8192
0 W 0x2740 8548d52949cd8948000000b9870fea394cfd2949c5894dca2948ea8948487b8b4858438b4ced75d28548cf4f0f48f93948128b48107a634800000000801f0fe9 8192
0 W 0x2780 001f0fc35f415e415d415c415d5b18c48348c031f475c08548008b48106029440000000000841f0ff429411774506b894cc085482f2c8d4e3875d285485d78ed 8192
0 W 0x27c0 48ef2948e2894c18738b48ef894c0000a04ee8daf748ef014cea894828348d4900000000801f0fb3eb60438b4818738b48486b034c0000b145e8ee0148ef014c 8192
0 W 0x2800 894c08244c89482414894864728d4cffffff4ae9fd2949c5894dd231487f8b4858478b4cffffff70e960438b4818738b48486b034c0000b105e8f22948487b03 8192
0 W 0x2840 007c6fe8487b8b480000b098e8ef894c646d8d4c18730348ce89483478c98548ffffff4e840f08244c8b48ed8548ffffffffb824148b48c5894800006ecae8f7 8192
0 W 0x2880 4cc78948fe894ce2894c0000abfae8ef894cdaf748ca8948187b8b4c646d8d4c58730348ce8948fffffef3e960438b48586b894818738b48f5014c486b894800 8192
0 W 0x28c0 4818478b4808778b4838ec8348f8247c894cf02474894cfb8948e8246c894ce02464894cf589d8246c8948d0245c894800000000801f0fafeb0000b049e8fa29 8192
0 W 0x2900 38c4834830247c8b4c2824748b4c20246c8b4c1824648b4c10246c8b4808245c8b48c5b60f40ff6e884108438948ff468d497a7401c4f6f68949078b4476c639 8192
0 W 0x2940 0873894c18438948487389481073894c48438b4858438948000001000b8158738b4c10438b48457400487f83480000008d850f01e680178b00000000801f0fc3 8192
0 W 0x2980 89485843894880e883484843894800000087840fc0854800006d67e800000080bf00000091850f00487f83483c74e839ff568d48ff46b60f0000441f0f668ceb 8192
0 W 0x29c0 4838348d4e3e74c48949c0854800006d1de8ef894c3f2c8d4fc72949107f8b4c00000000801f0fffffff41e90857894890668ceb08738b480000441f0f665043 8192
0 W 0x2a00 dbe9ffffffffb88f74c085fffffcdbe890fffffedfe95073894c1063894c0873894cec014d1863894c00007ad9e8187b8b480000af02e8f7894cfa894c18738b 8192
0 W 0x2a40 c74800401e402404c748000001ea850fff8545c7950f41c0854828ec83485355544155415641ff314500000000b857410000000000841f0f2e66666666fffffe 8192
0 W 0x2a80 002a549035b10f0deb0000186d850f002a549f35b10ff0107400002a71393d83c03100000001be3474002a54c11539480000001025148b486400000000082444 8192
0 W 0x2ac0 000001bd410000001025248b4c64000000f9840f002a54680589db854801c083002a54802d8b002a39461d8b48002a5481058b002a548b1589480000185e850f 8192
0 W 0x2b00 44ee89442f740862394c00000088938b484078002a543b1d8948003b8366c589000000c5840fdb8548002a39091d8b480000000000841f0f2e661cebf6314500 8192
0 W 0x2b40 0000c7840f000002003d0000020825038b010442830862894c00000088938b48000017e3850f32b10f09eb000017ee850f32b10ff00c7400002a70973d83f089 8192
0 W 0x2b80 8b0000179f850f0aff08eb000017a9850f0afff00b7400002a70363d83000000000842c7482475044289c08501e88304428b00000088938b483878003b836600 8192
0 W 0x2bc0 00002a535505c7482f75002a535e0589c08501e883002a5369058bffffff3b850fdb8548685b8b48ffffff38850fc53900000000002a539805c748002a539b05 8192
0 W 0x2c00 5d415c415d5b28c48348ffbfd3cae8f631e789480a74ff854500001752850f002a532f0dff0ceb00001760850f002a533d0dfff00f7400002a6fd63d83000000 8192
0 W 0x2c40 0000000000841f0f2e666666fffffe13e9ffbfd391e800401e40bed231e7894890ffffff22e91850ffdf8948ffffffffbe000000d8838b48001f0fc35f415e41 8192
0 W 0x2c80 001025148b4864ff314500000000082444c74800401e402404c748000002bb850fc0854800000000b86f74ff8528ec8348fb895355544155415641ff31455741 8192
0 W 0x2cc0 83002a5259158948000016a0850f002a525e35b10f0deb000016af850f002a526d35b10ff0107400002a6f073d83c03100000001be3474002a528f1539480000 8192
0 W 0x2d00 0000000000841f0f2e661deb0000001025348b4c6400000174840fdb8500000124840fe08944ed8548ed3145002a524c258b44002a37132d8b4801002a524e05 8192
0 W 0x2d40 0ff00c7400002a6e643d83c03100000001be30740872394c00000088958b484178002a52092d894800007d8366c48941000000f7840fed8548002a36d92d8b48 8192
0 W 0x2d80 762050394818508b48000000a0858b48000001988e0fd285000000c0958b010442830872894c00000088958b4800001624850f32b10f09eb0000162f850f32b1 8192
0 W 0x2dc0 dc3d83000000000842c7482b75044289c08501e88304428b00000088958b483f7800007d8366e8440f44fff8831850ffef8948ffffffffbe000000d8858b4819 8192
0 W 0x2e00 8548686d8b48ffffff06850fc4394100000000002a513705c748002a513a058b00000000801f0f000015b9850f0aff08eb000015c3850f0afff00b7400002a6d 8192
0 W 0x2e40 5d5be8894428c48348ffbfd189e8f631e789480a74ff85450000441f0f66000000ae840f002a50f80589c08501e883002a5103058b1d74db85ffffff09850fed 8192
0 W 0x2e80 76204a3948184a8b48000000a0958b48487ec985002a50bc2d8948000000c08d8bc48941cc74ed8548002a35892d8b4800000000801f0fc35f415e415d415c41 8192
0 W 0x2ec0 2855394820558b4800401f0fa3eb686d8b48a27500000000002a507c05c748c43941002a5082058b3074fff8831850ffef8948ffffffffbe000000d8858b481d 8192
0 W 0x2f00 e9000014ae850f002a50170dff0ceb000014bc850f002a50250dfff00f7400002a6cbe3d8300000000002a503d05c748001f0fcbebc5894100401f0fdaebbf77 8192
0 W 0x2f40 0000000000841f0f66fffffd42e901b741ffbfd091e800401e40bed231e789480000441f0ffffffe7fe9fffffe6b870f284d3948204d8b4800401f0fffffff24 8192
0 W 0x2f80 2500000081850f02e68341c68941038b0000001025248b4c6400000001bd000000b5840fdb8548c58941002a348a1d8b48fffffcf1e8535554415541ff315641 8192
0 W 0x2fc0 838b486b75c0852ab10f03eb2ab10ff0067400002a6bf23d83f0894400000174840f08623b4c00000088938b486d74f685000000c0b38b777408f88300001008 8192
0 W 0x3000 000000d0850f02fe83415850ffdf8948f631d231000000d8838b48000000ab840f01a8038b0a7500002a4f573d80f63145000000010440c70860894c00000088 12288
0 W 0x3040 8944000000ea840f08623b4c00000088938b480000d6c3e80000441f0fc35e415d41e889445c415d5bffffff59850fdb8548685b8b48ffffffff000000c083c7 12288
0 W 0x3080 02be410000d673e800401f0fffffff5ee900000001be41000000010440c70860894c00000088838b482175c0852ab10f03eb2ab10ff0067400002a6b583d83f0 12288
0 W 0x30c0 b8838948d02948002a4e7f1d894840438b48000000a8838948000000b0938948002a4e98058b48038938538b4801c8830000000000841f0fffffff4ae9000000 12288
0 W 0x3100 12ca850f0afff00b7400002a6aa93d83000000000842c748ffffff18850f044289c08501e88304428b00000088938b480000000000841f0fffffff1de9000000 12288
0 W 0x3140 0000000000841f0f2e666666666666ffffff38e90104428300000000801f0ffffffeaee90104428300000000801f0ffffffeefe9000012c0850f0aff08eb0000 12288
0 W 0x3180 04c74800000153850fed85c5950f40c0854800000000b80789ed31800c00000161880fc084078b28ec8348fb894853550000441f0f66fffffaf6e900000001bf 12288
0 W 0x31c0 0deb00001229850f002a4d5835b10ff0107400002a69f23d83c03100000001be3474002a4d7a1539480000001025148b486400000000082444c74800401e4024 12288
0 W 0x3200 01be30740842394c0000001025048b4c6400000088938b484a78003b8366002a4d461d894801002a4d390583002a4d441589480000121a850f002a4d4935b10f 12288
0 W 0x3240 058b48003b836601002a4ce70583010442830842894c00000088938b48000011e3850f32b10f09eb000011ee850f32b10ff00c7400002a69943d83c031000000 12288
0 W 0x3280 89c08501e88300000000002a4cae05c748002a4ca5058b0000007f840f044289c08501e88304428b00000088938b48187868438948002a31951d8948002a319c 12288
0 W 0x32c0 e8f631e789480a74ed850000116b850f002a4c600dff0ceb00001179850f002a4c6e0dfff00f7400002a69073d8300000000002a4c8605c7482f75002a4c8f05 12288
0 W 0x3300 113e850f0afff00b7400002a68a93d83000000000842c74800401f0ffffffeaae9ffbfcce1e800401e40bed231e789480000441f0fc35d5b28c48348ffbfccfc 12288
0 W 0x3340 c5950f40c08548ed3100000000b80000018b890f003f8028ec8348fb894853550000000000841f0f2e666666666666ffffff58e900001134850f0aff08eb0000 12288
0 W 0x3380 8d35b10ff0107400002a68273d83c03100000001be3474002a4baf1539480000001025148b486400000000082444c74800401e402404c748000001a0850fed85 12288
0 W 0x33c0 1025048b4c6400000088938b484a78003b8366002a4b7b1d894801002a4b6e0583002a4b79158948000010c3850f002a4b7e35b10f0deb000010d2850f002a4b 12288
0 W 0x3400 158b48010442830842894c00000088938b480000108c850f32b10f09eb00001097850f32b10ff00c7400002a67c93d83c03100000001be30740842394c000000 12288
0 W 0x3440 2381ea75c0854868408b4868508d480000009f840fc33948001f0f0000009fe91175c339482374c0854868428b480000011e840fd339483574d28548002a2fdc 12288
0 W 0x3480 2f75002a4a960589c08501e88300000000002a4ab505c748002a4aac058b0000009e840f044289c08501e88304428b00000088938b481878003b8366ffffff7f 12288
0 W 0x34c0 c48348ffbfcb03e8f631e789480a74ed8500000fe6850f002a4a670dff0ceb00000ff4850f002a4a750dfff00f7400002a670e3d8300000000002a4a8d05c748 12288
0 W 0x3500 00401f0ffffffe5de9ffbfcac9e800401e40bed231e789480000441f0fffffff5be902894801002a4a45058368438b480000000000841f0f68c28348c35d5b28 12288
0 W 0x3540 2e9e05894801002a49e5058368438b4800000000801f0fffffff39e900000f90850f0aff08eb00000f9a850f0afff00b7400002a66913d83000000000842c748 12288
0 W 0x3580 8548000000001847c748000000004047c748000000003847c7483789000000007447c7fbad0000ce8100000088878b480000000000841f0f66fffffef7e9002a 12288
0 W 0x35c0 0000005047c748000000004847c748000000006847c748000000003047c748000000002847c748000000002047c748000000001047c748000000000847c748c0 12288
0 W 0x3600 00a08f89486578000000c09789d285000000000840c748000000000440c70000000000c7157400000000008087c766000000006047c748000000005847c74800 12288
0 W 0x3640 0000002841c748000000002041c748000000001841c748000000000841c7480000000001c748000000001041c748000000003841c748000000003041c7480000 12288
0 W 0x3680 7447c7fbad0000ce8100000088878b4800401f0fc300000000000000a887c7480000014081894c000000005041c748000000004841c748000000004041c74800 12288
0 W 0x36c0 0000002847c748000000002047c748000000001047c748000000000847c748c08548000000001847c748000000004047c748000000003847c748378900000000 12288
0 W 0x3700 000000c7157400000000008087c766000000006047c748000000005847c748000000005047c748000000004847c748000000006847c748000000003047c74800 12288
0 W 0x3740 006047c7480874fb894800607f8348530000000000841f0f66c300000000000000a887c748ffffffff000000c087c7000000000840c748000000000440c70000 12288
0 W 0x3780 00006d30e858438948487b8948104b8948085389481853894810438b480389187b8b48584b8b48fee480257401c4f6038b4974fa8948ff8548487b8b48000000 12288
0 W 0x37c0 48ff31fb89485300002000be00000003ba00000022b9ffffffffb841c93145550000441f0f66c35b000000005043c748000000005843c748000000004843c748 12288
0 W 0x3800 001f0fc35d5b08c4834800000001b8406b894800002000c58148386b8948fe238321740103f60574ff8548387b8b482574fffd8348c589480000e118e808ec83 12288
0 W 0x3840 f58948000000d8878b4818ec8348f82464894cfb8948f0246c8948e8245c894800401f0fc3eb0000e0e6e8fffff000e68148fe294800000fffc6814840738b48 12288
0 W 0x3880 48386b8948010b83000000b0840f01a808740389ff854802c88300000083ab8d48387b8b48038b7775ed85480574e4854d000000b1840ffff8836050ffd48949 12288
0 W 0x38c0 4808246c8b48d88948000000001843c748000000000843c748000000001043c748000000002043c748000000002843c748000000003043c748406b894801c583 12288
0 W 0x3900 0000000000841f0f2e6691eb406b8948010b83e5014c386b8948227401a804741389ff8548fde283c289387b8b48038b001f0fc318c483481024648b4c241c8b 12288
0 W 0x3940 dfbee8fffff000e68148fe294800000fffc6814840738b4800401f0fc2eb0000dfdee8fffff000e68148fe294800000fffc6814840738b4800401f0fb3ebdb31 12288
0 W 0x3980 49e5470f4cec3949f4294900000093860ff4394910678b4cfb894808778b4853d58948555441f589495541d6894956410000000000841f0f66ffffff31e90000 12288
0 W 0x39c0 f2840ff0e783c7894400000189860fd5394910568d48000001a6850f0fc5f641000001b0860fe08945ff24448d410ffc83417774e4854d00000197870f14fc83 12288
0 W 0x3a00 014dc6014c01c0834901e88341ed7901e88301c1834839884001c283483ab60f90147416148d4800457f0f416600154c8d49f83941f829fa89066f0ff3000001 12288
0 W 0x3a40 0fe6394c10638b4c08738b4800000164850f08c4f6038bffffffff000000c083c7000000e1850fc085000000c0838b000000f8840fed8548e5294c08738948c5 12288
0 W 0x3a80 7b8348fffffef8870f0873894848538948187389481063894cf439490389fee48018538b485853894858638b4ce2894c48738b48317401c4f6038bffffff2782 12288
0 W 0x3ac0 ede858438948487b8948104b8948085389481853894810438b480389187b8b48584b8b48fee480257401c4f64774fa8948ff8548487b8b48000000f8850f0060 12288
0 W 0x3b00 0000441f0f66fffffe72e910638b4c08738b481c74fff8832050ffdf8948000000d8838b48000000005043c748000000005843c748000000004843c748000069 12288
0 W 0x3b40 0000000000841f0f66fffffecee9c589490863014c00009945e8e2894cef894c0000000000841f0fc35e415d415c415de829485bf0894cffffff20840ffff883 12288
0 W 0x3b80 0000000000841f0f66fffffe7ce9ee75f8394801c08348088801c283480ab60f90e8894c01057c8d49f28948ff408d41001f0ffffffe6a870fd6394810558d49 12288
0 W 0x3bc0 fffffe20e9e9894cf28948ffffff54e99066fffffe86850ffff883ffffe37be80000441f0fdf8948ffffff71e9ffffff48840fc085ffffeb45e8df8948e6894c 12288
0 W 0x3c00 0000441f0fc35d5b08c48348606b89480045894860438b4810558918532b1e7501c4f608538b483775c18908c4f608758948068b08ec8348f3894853fd894855 12288
0 W 0x3c40 284389483043894808438948104389480476c289481853894838538b4810433b48317501c5f6437720463b4828468b480000000000841f0fe0eb10558910532b 12288
0 W 0x3c80 56e9038b9eeb28438b480b8b0874fff8831850ffffffffffbedf8948000000d8868b48d7ebc289481853894850538b48001f0f90eb0389f7e480c88920438948 12288
0 W 0x3cc0 000000000840c74800401f0f1474c0854860438b48000001d5840f0103f60974ff8548387f8b4828ec8348fb894853550000000000841f0f2e66666666ffffff 12288
0 W 0x3d00 04c748000001d3850fed85c5950f40c08548ed3100000000b80000018e890f003b80000000004843c748000067dae80d74ff8548487b8b48f075c08548008b48 12288
0 W 0x3d40 0deb00000791850f002a41d835b10ff0107400002a5e723d83c03100000001be3474002a41fa153b480000001025148b486400000000082444c74800401e4024 12288
0 W 0x3d80 01be307408423b4c0000001025048b4c6400000088938b484a78003b8366002a41c61d894801002a41b90583002a41c415894800000782850f002a41c935b10f 12288
0 W 0x3dc0 39483874d28548002a2627158b48010442830842894c00000088938b480000074b850f32b10f09eb00000756850f32b10ff00c7400002a5e143d83c031000000 12288
0 W 0x3e00 003b8366ffffff7f2381ea75c0854868408b4868508d48000000cf840fc339480000441f0f66000000d5e91475c339482674c0854868428b480000014a840fd3 12288
0 W 0x3e40 00002a40d505c7482f75002a40de0589c08501e88300000000002a40fd05c748002a40f4058b000000ce840f044289c08501e88304428b00000088938b481878 12288
0 W 0x3e80 00401f0fc35d5b28c48348ffbfc14be8f631e789480a74ed85000006a2850f002a40af0dff0ceb000006b0850f002a40bd0dfff00f7400002a5d563d83000000 12288
0 W 0x3ec0 405d058368438b480000441f0f68c28348fffffdfce9000000003843c748000000004043c7480000da66e8fffff000e68148fe294800000fffc6814840738b48 12288
0 W 0x3f00 0626850f0afff00b7400002a5ca93d83000000000842c74800401f0ffffffe2ae9ffbfc0e1e800401e40bed231e789480000441f0fffffff2be902894801002a 12288
0 W 0x3f40 00a6850fc085fb8948000000c0878b530000000000841f0ffffffecee9002a24bd05894801002a4004058368438b48ffffff09e90000061c850f0aff08eb0000 12288
0 W 0x3f80 8b48000000da850f00607b83480000008d850f01c4f6038b000000c9820ff2394810738b4808538b48000000e7850f08c4f6038bffffffff000000c087c70000 12288
0 W 0x3fc0 0000004843c748000064f7e858438948487b8948104b8948085389481853894810438b480389187b8b48584b8b48fee480257401c4f64774fa8948ff8548487b 12288
0 W 0x4000 0000000000841f0fc35bffffffffb8ffffff5b840ffff8830000441f0f66e0ff28408b485bdf8948000000d8838b48000000005043c748000000005843c74800 16384
0 W 0x4040 8948c35b0853894801c2834802b60fffffff42860f0853894818538948d63948484b8948107389480389fee48048538b4858538948184b8b4858738b48f28948 16384
0 W 0x4080 00a6850fc085fb8948000000c0878b530000441f0f6687ebffffff69840fc085ffffe670e8df89480000441f0f669feb90ffffff08850ffff883ffffdedae8df 16384
0 W 0x40c0 8b48000000e2850f00607b83480000008d850f01c4f6038b000000d8820ff0394810738b4808438b48000000ee850f08c4f6038bffffffff000000c087c70000 16384
0 W 0x4100 0000004843c748000063b7e858438948487b8948104b8948085389481853894810438b480389187b8b48584b8b48fee480257401c4f64774fa8948ff8548487b 16384
0 W 0x4140 0000000000841f0fc35bffffffffb8ffffff5b840ffff8830000441f0f66e0ff20408b485bdf8948000000d8838b48000000005043c748000000005843c74800 16384
0 W 0x4180 0000000000841f0f2e66c35b02b60fffffff42860f0853894818538948d63948484b8948107389480389fee48048538b4858538948184b8b4858738b48f28948 16384
0 W 0x41c0 0000000000841f0f2e6666ffffff7ce9ffffff61840fc085ffffe528e8df89480000000000841f0f99ebffffff01850ffff883ffffdd93e8df8948c35b00b60f 16384
0 W 0x4200 48417eff85000000c0bf8b0a740207f6c318c483481024648b4c08246c8b48241c8b48137400387f834818ec8348f82464894cfb8948f0246c8948e8245c8948 16384
0 W 0x4240 0000441f0f66a3eb010b83406b89483863894c23740103f60574ff854800000084ab8d4800000083a38d4c387b8b48cc75fff8836850ffdf8948000000d8838b 16384
0 W 0x4280 0080c481480000df65e800000080ec81483a8d48c1eb0000d696e8fffff000e68148fe294800000fffc6814840738b48ddeb00000084ab8d4800000083a38d4c 16384
0 W 0x42c0 00000080c481480000def7e800000080ec8148002a3c633d8d48ffffdbe6e900000080c481480000df46e800000080ec8148002a3c823d8d48ffffdbc3e90000 16384
0 W 0x4300 83e900000080c481480000deb9e800000080ec8148002a3c253d8d48ffffe17ee900000080c481480000df08e800000080ec8148002a3c443d8d48ffffe14ae9 16384
0 W 0x4340 002a3bd03d8d48ffffe846e900000080c481480000deb3e800000080ec81483a8d48ffffe802e900000080c481480000de9ee800000080ec81483a8d48ffffe7 16384
0 W 0x4380 000080ec81483a8d48ffffe941e900000080c481480000de45e800000080ec8148002a3bb13d8d48ffffe88fe900000080c481480000de94e800000080ec8148 16384
0 W 0x43c0 0000de20e800000080ec8148002a3b5c3d8d48ffffea2ce900000080c481480000de3fe800000080ec81483a8d48ffffe9c1e900000080c481480000de2ae800 16384
0 W 0x4400 000080c481480000ddb6e800000080ec8148002a3b223d8d48ffffed25e900000080c481480000de05e800000080ec81483a8d48ffffeb33e900000080c48148 16384
0 W 0x4440 ffffee76e900000080c481480000ddace800000080ec8148002a3ae83d8d48ffffee02e900000080c481480000dd9be800000080ec81483a8d48ffffedc7e900 16384
0 W 0x4480 ec81483a8d48ffffef1ee900000080c481480000dd42e800000080ec8148002a3aae3d8d48ffffeeb1e900000080c481480000dd91e800000080ec81483a8d48 16384
0 W 0x44c0 1de800000080ec81483a8d48ffffeffbe900000080c481480000dd38e800000080ec8148002a3a743d8d48ffffef59e900000080c481480000dd27e800000080 16384
0 W 0x4500 c481480000dcb3e800000080ec81483a8d48fffff85fe900000080c481480000dccee800000080ec8148002a3a3a3d8d48fffff055e900000080c481480000dd 16384
0 W 0x4540 c9e900000080c481480000dca9e800000080ec81483a8d48fffff93fe900000080c481480000dcc4e800000080ec8148002a3a003d8d48fffff89ae900000080 16384
0 W 0x4580 2a434b35b10f07eb002a435435b10ff00a7400002a56323d83d08900000001bed231000000c28e0fc085002a22ea058b90660000000000841f0f2e6690fffff9 16384
0 W 0x45c0 850f32b10f09eb0000717e850f32b10ff00c7400002a55f33d83c08944ce89449066c0314500000001b941006a8000baffffffd8c2c7490000009f850fc08500 16384
0 W 0x4600 4800407dd0002a398905c748002a3994058b48002a42fb0589480040b0b0002a224205c748002a224d058b48cc75006a8000fa814800000868928b4800007173 16384
0 W 0x4640 7400002a55613d83d089e374ff3a834964ffffffd8c2c7490000441f0f66c3f301002a43100583002a42df058948ffffffff02c74964028b4964002a42ea0589 16384
0 W 0x4680 058b000000a28e0fd285002a21ca158b0000000000841f0f2e66666666ffffff2de9000070f4850f002a427435b10f0deb00007103850f002a428335b10ff010 16384
0 W 0x46c0 2a422f058b48002a216e058948006a8000ba002a423a058b4810894864ffffffd8c0c748002a425c158b480000008b850f002a42a10589c08501e883002a42ac 16384
0 W 0x4700 549d3d83d475006a8000fa814800000868928b4800007085850f0aff08eb0000708f850f0afff00b7400002a54c93d830000000000841f0f002a38c005894800 16384
0 W 0x4740 c748000000818e0fc985002a210a0d8b0000000000841f0f2e6666666666c3f30000706c850f002a41b20dff0ceb0000707a850f002a41c00dfff00f7400002a 16384
0 W 0x4780 9066006a8000b8002a380f058948002a417e058b48002a20bd058948002a4184058b480889486400000000002a417f05c748d231002a41ac0d8b48ffffffd8c0 16384
0 W 0x47c0 f300000000002a417105c700000000002a411705c7002a412d158948dc75006a80003d4800000868808b48c28948000008709089480a740000000000c7c83948 16384
0 W 0x4800 2a202b05c74800407e80002a378e05c7480040afa0002a203905c74800000001002a415c05c73e75f685002a416e358b0000000000841f0f2e666666666666c3 16384
0 W 0x4840 e083481b7502a8f8478b481b74ff85480000000000841f0f2e66666666c300000000002a412205c700000000801f0fc30040b550002a202805c7480040b1d000 16384
0 W 0x4880 245c8948d231f02464894ce8246c89480000000000841f0f2e666666666666c310e88348f8e083480000441f0fc3c031001f0fc308e88348087401f80744f6f8 16384
0 W 0x48c0 49002a1f6115ffff31177ee4854de1af0f4cff608d4cf1f748f82948df19448d48f8e3834808588b48f58948002a40040d8b58468b4828ec8348f8246c894ce0 16384
0 W 0x4900 8d058b48002a1f2415ffdff748e7894c00000000801f0fc328c4834820246c8b4c1824648b4c10246c8b4808245c8b48c0312274c5394958450348d88948c589 16384
0 W 0x4940 0000441f0fcdebd0ff99eb00000001b80858894801cb834800000878ad294ceb294c58458b48b474c52949b974c08548002a1f1015ffff312f75c08548002a36 16384
0 W 0x4980 01e88308247c8b480000c208e808247c89482434894800000096840f02c5f640f05f8d48f86f8b4800000090850f0fc7f64028ec8348f8246c8948f0245c8948 16384
0 W 0x49c0 0800fa81481d7400000100fa8148267400000200fa81482f7440fa8348357400000080fa81483e7420fa8348447410fa83484a74fa2148c28948984824348b48 16384
0 W 0x4a00 00401f0fc328c4834818245c8b4820246c8b48d88948db310000441f0f660000011d840f01c5f64000000000801f0f0000010f850f00000400fa814814740000 16384
0 W 0x4a40 c2f6aa761ffa83480000441f0fb573c8394913048d4c002a3e0e0d0348c577d93948002a3e9a0d8b48217401e08301f083e8d1f8e28348ea8948002a35be058b 16384
0 W 0x4a80 48c7b60f40edb60f4039b60fc5314403edc1480be8c149130c8d48dd8948d8894907c283480000013b840f01e58040977401f80f44f6f8e18348e98948a57508 16384
0 W 0x4ac0 39b60f130c8d48c22948ffffff32870fd1394810488d48ffffff3f840fc085480000441f0fffffff4de92073ca394810488d48ffffff5b840fc085484574e839 16384
0 W 0x4b00 48fffffed9e9fffffeee850f00001000fa8148fffffeeb870f00001ffffa814890ffffff0be90e8948ffffff13840f398840f68548d7f7d775e83948c7b60f40 16384
0 W 0x4b40 0f4039b60fedb60f40c53144130c8d4803edc1480be8c149dd8948d88949ff558d48fffffeca850fd08548ca0948000d4c8d48ca2948da8948f8e58348f04f8b 16384
0 W 0x4b80 2948fffffe6a870fd1394810488d48fffffe77840fc085480000441f0f66fffffe86e92173ca394810488d48fffffe94840fc08548ffffff7e840fe83948c7b6 16384
0 W 0x4bc0 8b48fffffe2a870f002a3d002d3948032c8d48d8f748c889482e74c085fffffe45850f0fc1f6f04f8b48ffffff33e9d775e83948c7b60f4039b60f130c8d48c2 16384
0 W 0x4c00 0474d78948fd89c9854838ec8348f82464894cf38948f0246c8948e8245c8948001f0fe1ebd8f748c88948fffffe86e9fffffe18850fc13948f8e08348f80744 16384
0 W 0x4c40 bac9311024748d48001f0fc338c483483024648b4c28246c8b4820245c8b4800000098850f02e583207501c5f6400000008e840f05f88305e083e88904044983 16384
0 W 0x4c80 47fae8bed98948ef89002a50c9058b48e08949f3773000c641e0394d01e8834900000000801f0f1776c08949e0394800010b9fe8e4894900102444c600000010 16384
0 W 0x4cc0 90660000eed2e8ffffff68e9ffffccece8c03102e78300496b57beda8948ef8900401f0f85ebffffcd06e8c03102e783d0440f48d285480047f8d7b8108b4800 16384
0 W 0x4d00 0000441f0f084f8d4c50578d4c58778d4c01044f83f001740000000018253c836400000179840f00002a3be73d834838ec83485355544155415641f889495741 16384
0 W 0x4d40 03ff08247c81490000039b850f10623b4c000003a5850f18603b4c1824548b49ed014c1024448b490000441f0f00000115e900000094850fdb8548198749db31 16384
0 W 0x4d80 48000000002843c748000000002043c748107618588948105e8949000003fffd814810468b4900000414850fd285482024548b490e7610428948185089480000 16384
0 W 0x4dc0 01a8f8e5834908246c8b4d2b248d4cfae58348c58948107b8b4c08438b4800000086840ffb894cff854d085389482b2c894801ca8348104389481873894cea89 16384
0 W 0x4e00 d2854820538b480d761042894818508948000003ff087b81480000026f850f105a3b4800000279850f18583b4818538b4810438b48c50148c32948038b484475 16384
0 W 0x4e40 0000441f0f66fffffec6e908c18349000001e4840fd1394d0000441f0fffffff37e9fe0824648349ffffff00840f01082c44f64334745860394d0000034c850f 16384
0 W 0x4e80 c06c0f6600000828978d480824447e0ff3d2ef0f456608244c8948000001bf850f0fc1f6684f8d4800401f0fffffff42e9086b894801cd834858588949ed014c 16384
0 W 0x4ec0 0000441f0f0007b205156f0f660007b1fd3d6f0f660007b1f5056f0f44660007b1ee1d6f0f44660007b1e7256f0f4466c86f0f44660007b1e5356f0f66c88948 16384
0 W 0x4f00 730f66da6f0f6608ed700f66e8f40f416608c0700f66c1f40f6604d9730f6604d8730f66e86f0f66c3fe0f4166e26f0f4166c86f0f4166f4fe0f4166c66f0f66 16384
0 W 0x4f40 d40f66caf40f6620f3730f66efd40f66c56f0f4166ddf40f4166cd6f0f4166efd40f4466e26f0f66ec6a0f66ec620f4466ed6f0f4466e5660f66e8620f6620d3 16384
0 W 0x4f80 20f4730f66e5f40f6620f3730f66c2f40f66daf40f6620d4730f6620d3730f66c9d40f4166c56f0f66c8d40f6620f0730f66c2f40f6620d0730f66dd6f0f66cb 16384
0 W 0x4fc0 0fd0394840c0834830407f0f6620487f0f66c06d0f66c86c0f66c86f0f6610487f0f66187f0f66c96d0f66d96c0f66c1d40f4166d96f0f66c3d40f66c4d40f66 16384
0 W 0x5000 8304408b414874006a8000f881491040894818408948000007d0818d481040894818408948000007c0818d481040894818408948000007b0818d48fffffefb85 20480
0 W 0x5040 75d0394810c0834810408948184089489000000848978d4858478d48c35f415e415d415c415d5b38c48348584889490440894110e9834801c8830440894102c8 20480
0 W 0x5080 da8948c1894c002a17ca3d8b00006737850f08ff4109eb00006742850f08ff41f00c7400002a4b433d83b0eb002a2f70058b00000080002a387205c748afebef 20480
0 W 0x50c0 0f30b10f410aeb0000670d850f30b10f41f00d7400002a4af43d831824448b4cc03100000001befffffb47e8282454894c20244c894c182444894c0047f8e1be 20480
0 W 0x5100 e1bee2894cc1894c002a174c3d8b000066ef850f08ff4109eb000066fa850f08ff41f00c7400002a4ac53d83fffffd32e92824548b4c20244c8b4c0000670185 20480
0 W 0x5140 b9850f30b10f410aeb000066c5850f30b10f41f00d7400002a4a763d831824448b4cc03100000001befffffac9e8282454894c20244c894c182444894c0047f8 20480
0 W 0x5180 8b49284289482824448b493d740020788348fffffc98e92050894828438b482842894828438b4833740020788348fffffc08e92824548b4c20244c8b4c000066 20480
0 W 0x51c0 2824548b49205089483174d43949fffffc54e92042894828538b482842894820538b482850894828538b48205089484a74d33948fffffbcee920508948282444 20480
0 W 0x5200 0000000000841f0f2e6666fffffb65e92040894828408948fffffc1ee92040894828408948fffffb7fe9204289482824548b49284289482024548b4928508948 20480
0 W 0x5240 0f002a2d8135b10f0deb000065e1850f002a2d9035b10ff0107400002a497a3d83c03100000001be000001f0880fff85002a16303d8b08ec8348f38953fd8955 20480
0 W 0x5280 491d3d83002a35fc1d894801eb83480b72002a36091d39481474db854800000001ba002a36221d8b48597609fd83fffffa6ee808c583006a8000bf000065d285 20480
0 W 0x52c0 00000000801f0f0047ffb8ed24ffed8900000000801f0fc35d5bd08908c4834800006596850f002a2d260dff0ceb000065a4850f002a2d340dfff00f7400002a 20480
0 W 0x5300 00401f0fffffff6ce9002a35891d894800000001badb6348ffffff6f8e0fdb850000000000841f0f668cebd231002a35ad1d8b480000014c860f000000a0fb81 20480
0 W 0x5340 05c7002a35321d894801b2db63480c7702000000fb81d23100000000801f0fffffff42e9002a35641d8b4800000001ba00000001002a358405c7002a35861d89 20480
0 W 0x5380 001f0ffffffee6e9002a35081d8b48002a34f71d894800000001ba00000001002a352f05c7db634800401f0fffffff0fe9002a35311d8b4800000001002a354c 20480
0 W 0x53c0 90fffffea4e9002a34c61d8b4800000001ba002a351a1d89001f0ffffffebee9002a34e01d8b48002a34c71d894800000001ba00000001002a350705c7db6348 20480
0 W 0x5400 60e9002a34821d8b48002a34811d894800000001badb6348fffffe6f8e0fdb850000000000841f0f66fffffe8ce9002a34ae1d8b4800000001ba002a147e1d89 20480
0 W 0x5440 001f0fe4ebf0e0834808c08348c36348001f0ffffffe2ae9002a34980589480f7500000010b8db850000441f0f66fffffe06e900000033e80000441f0ffffffe 20480
0 W 0x5480 0505c700020000002a33eb05c74800000000002a13ce05c700000000801f0fc35d415c415d5b08c483481278c98545002a13ef0d8b4408ec8348535554415541 20480
0 W 0x54c0 2a340b05c74800000008002a33be05c748ffffffd8c0c748002a33f005890000b6dee800020000002a33c305c74800020000002a33de05c74800010000002a34 20480
0 W 0x5500 4800404590002a340905c748c0854800000000002a33db05c7006a6168b8006a800000c74864006a8000002a334e05c74800000000002a2af105c70000000100 20480
0 W 0x5540 002a34081d8b480000cd97e800000001002a33f405c7002a33f6058948006a8940bf002a0c0a058b48077400404770002a340305c748004046b0002a340605c7 20480
0 W 0x5580 d0ff0274c08548002a2a07058b482675c0840045b60f0874ed8548eb75c08548038b4808c38348000000ac840f4d38800debed312674db8548002a0af1258b44 20480
0 W 0x55c0 05c70c74ed85002a338a2d8bbe74c08545002a1295058b44fffffc58e8d0708dfffffffbbfc0be0f001f0fc35d415c415d5b08c4834800000001002a12b605c7 20480
0 W 0x5600 0040b550002a123805c7480040b1d0002a123b05c74800407e80002a299e05c7480040afa0002a124905c74800000001002a336c05c7a8eb00000000002a337c 20480
0 W 0x5640 ffff18850f5f067880ffffff22850f43057880ffffff2c850f4f047880ffffff36850f4c037880ffffff40850f4c027880ffffff4a850f41017880ffffff6de9 20480
0 W 0x5680 ef894c00480008d524fffffffee3870f09fa834806ea8348ea753df980fffffef6840fc98407104cb60f01c2834804ebd231ffffff17840f07c58349c58949ff 20480
0 W 0x56c0 000fba7f74c085ffffabe7e8ef894c0047f92fbe0000000fbafffffeb2850fe48545fffffebbe9ed440f49c085ffffac0de807c5834900481a0ebe00000006ba 20480
0 W 0x5700 fffe58850fe48545fffffe61e9fffffb0de8c689fffffffdbf0000f089e80000000abaf631107d8d49fffffe82850fc085ffffabd1e8ef894c0047f93fbe0000 20480
0 W 0x5740 107d8d49fffffe1de9fffffac9e8c689fffffff9bf0000f045e80000000abaf6310b7d8d49fffffe3e850fc085ffffab8de8ef894c0047f924be0000000abaff 20480
0 W 0x5780 09ba00000095840fc085ffffab2ae8ef894c0047f910be00000009bafffffdf5850fe48545fffffdfee9fffffaaae8c689ffcf830000f024e80000000abaf631 20480
0 W 0x57c0 fd97850fe48545fffffda0e9fffffa4ce8c689fffffff8bf0000efc8e80000000abaf6310a7d8d49fffffdc1850fc085ffffab10e8ef894c0047f91abe000000 20480
0 W 0x5800 ef6ee80000000abaf631097d8d49fffffd67850fc085ffffaab6e8ef894c0047f907be00000008ba5c74c085ffffaacce8ef894c0047f8febe00000008baffff 20480
0 W 0x5840 e80000000abaf631097d8d49fffffd25e9fffff9d1e8c689fffffffcbf0000ef4de80000000abaf6310a7d8d49fffffd46e9fffff9f2e8c689fffffffabf0000 20480
0 W 0x5880 74444c45413b8148fffffbc8e800000001002a30d105c708ec8348fb894853550000000000841f0f2e6666fffffd04e9fffff9b0e8c689fffffffebf0000ef2c 20480
0 W 0x58c0 0f0deb00005f98850f002a270935b10ff0107400002a42f33d83c03100000001bee77ffffffffeb8ffffff000843f748001f0fc35d5b08c48348ffffffffb80f 20480
0 W 0x5900 4808428d480874d2854800000010b800000888938b480000042f8e0f03087b834801002a26e50d83f001740000000018253c836400005f89850f002a26fa35b1 20480
0 W 0x5940 05c700000000002a2ede05c700000000002a2ee405c7006a8058b84100000000002a26ec05c74800000000002a26af05c748c0ef0f66002a2fb6058948f0e083 20480
0 W 0x5980 057f0f660000007ebb4100000001b941002a2670057f0f66006a8000ba4100000001be00000000002a2ec705c7002a267d057f0f66da894800000000002a2ed8 20480
0 W 0x59c0 0f30fd834806edc148fd894808798b480000000000841f0f667eebc0894c002a267605894800000000002a268505c74820438b48002a2674057f0f66002a266c 20480
0 W 0x5a00 387a8b48002a262c0d8b4810798948384a8b48006a80581841c748002a26433d8b48304a8b481840894810408948000000de840ff5394830c58348000000cb87 20480
0 W 0x5a40 48ffffff71870f3ffe83489d7e02087b83485274c98548304a8b4800000135840f00000080fe814810c0834810c2834801c6834810488949304a8b4818798948 20480
0 W 0x5a80 908deb08ba4c8941e909006a8008bd0c8be5d31fe183f1891041894800000214c7814805efc14818488b48f789481841894818788948cd8944387a8b48104889 20480
0 W 0x5ac0 087f8b48283b7c8b4804e7c148f789480000000000841f0f2e66ffffff23e95bc58348437714fd834809edc148fd89480000441f0f6682eb1040894818408948 20480
0 W 0x5b00 0000000000841f0f2e66fffffed3e96ec583482b770afd83480cedc148fd894890ffffff60e9fffffef8850ff5394830c58348337730fd834806edc148fd8948 20480
0 W 0x5b40 48000001c4870f0afd83480cedc148fd8948fffffe9be977c58348207704fd83480fedc148fd89480000441f0fbeeb5bc58348217714fd834809edc148fd8948 20480
0 W 0x5b80 f8e2834808508b480000441f0f3274006a80583d48002a24bd058b48417f02f98348084b8b48fffffe6fe9eb430f4903ff83487c6f8d4812efc1488ceb6ec583 20480
0 W 0x5bc0 05894800000828836348002a2d02058948c9854800000820838b48d375006a80583d4810408b48000000002840c748000000002040c7481076000003fffa8148 20480
0 W 0x5c00 00000850838b002a2c7605894800000848838b48002a2ca0058900000840838b002a2c8805894800000838838b48002a2c8e05894800000830838b48002a2c74 20480
0 W 0x5c40 000878838b48002a2c6605894800000870838b48002a2c6405890000086c838b002a2c68058900000868838b002a2c2c05894800000858838b48002a0c3e0589 20480
0 W 0x5c80 a105c74800000001002a2cc405c73675db8545002a2cd71d8b444275c085002a2cde058b000000e2840fd28500000880938b0000008a8e0f002a2c6005894800 20480
0 W 0x5cc0 98838b48002a2bbc05894800000890838b482a7e03f983480040b550002a0b9005c7480040b1d0002a0b9305c74800407e80002a22f605c7480040afa0002a0b 20480
0 W 0x5d00 83e9c03100005b78850f002a22ca0dff0ceb00005b86850f002a22d80dfff00f7400002a3ec13d83002a2bf8058948000008a0838b48002a2bb6058948000008 20480
0 W 0x5d40 8b44fffffd93e9eb430f4903ff83487c6f8d4812efc148fffffbe1e900000040002a2b9c05c748fffffdb8e977c58348197704fd83480fedc148fd8948fffffb 20480
0 W 0x5d80 002a2bbc05c700000000002a0abe05c74800000000002a0ac105c74800000000002a222405c74800000000002a0acf05c748ffffff5a840fd28545002a2bfb15 20480
0 W 0x5dc0 002a220035b10ff0107400002a3dea3d83c03100000001be00000143880ffb894853555441554100002a0aa73d83564100000000801f0fffffff1fe900000000 20480
0 W 0x5e00 90661a74c08548006a8008cd048b48c931c03145c9314508508b4c00000110840fc08548002a223c058b4800005abe850f002a21f135b10f0deb00005acd850f 20480
0 W 0x5e40 0000000000841f0f6610148d49f8e2834800000001be006a8058bfd2894ccf750af9834801c18348e875c08548d00149f8e2834801c1834110408b4808508b48 20480
0 W 0x5e80 29b62d8b48002a2a0d258b44cc75006a8848ff814810c78348e975f83948ca0148f8e1834801c68318408b4808488b4800000000801f0f1e74f8394818478b48 20480
0 W 0x5ec0 8944d0292b89f8e28341e889000059fe850f002a21120dff0ceb00005a0c850f002a21200dfff00f7400002a3d093d83002a2a20358b4c002a2a172d8b4c002a 20480
0 W 0x5f00 48ffffedc1e8006a8000bffffffeb3e9fffff550e8c35e415d415c415d5b2453894418438944205389047389084b8944d88948147389441c4389106b89440c63 20480
0 W 0x5f40 01002a29482d831375c1854801e883f10948002a296a058b30348d48f98948f8e08348f7294808428b48378b48fa89480000441f0ffffffedae9002a2112058b 20480
0 W 0x5f80 3d8338ec8348535554415541564157410000000000841f0f2e6666666666ffffec7ee90047fb18bec93110c28348002a08f23d8b0000b9b4e9002a2959352948 20480
0 W 0x5fc0 08eb00005913850f0afff00b7400002a3bed3d831824548b48242454093deb00000000242444c7006a8000182444c748000001e5880f28247c894800002a08bb 20480
0 W 0x6000 eb000058ed850f32b10ff00c7400002a3bad3d831824548b48c03100000001be00000132840f1824448948006a80003d4800000868828b4800005909850f0aff 24576
0 W 0x6040 247c8d4d1424448904e8c1000000c4870f000003fffc8149c48941002a2873058bffffeca1e8c789488c75040440f6d2311824448b48000058e2850f32b10f09 24576
0 W 0x6080 0000000000841f0f58eb1375eb3948185d8b48637501fd8341067d14246c3b4400401f0fd6f74958c58348fe894d2fc4834900000001bd41d23118246c8b48ff 24576
0 W 0x60c0 185b8b480000b884e8f6214c00000004bac68948d473c7394906048d48fe2948f7214cde8948233c8d4aea76e0394cf8e0834808438b484774eb3948185b8b48 24576
0 W 0x6100 06e8c148e0894cfffffeaae9c2094c74006a800018247c8148c031ffffff7b850f00000080fd814110c5834801c583410000441f0f66bf75eb394800000001ba 24576
0 W 0x6140 8b48fffffefee9142444895bc0832a7714f8834809e8c148e0894cc35f415e415d415c415d5b38c483482424448bffffff2ae91424448930c0831f7730f88348 24576
0 W 0x6180 4cfffffe11e9fffff2c6e8fffffec7e9142444896ec08316770af883480ce8c148e0894cfffffe47e9c2090824548bffffe71fe808245489006a8000be28247c 24576
0 W 0x61c0 0000000000841f0f66fffffe85e914244489c2420f0000007eb803f883487c508d12e8c148e0894cfffffea4e91424448977c0830c7704f883480fe8c148e089 24576
0 W 0x6200 2a27373d8b4800008000bb0000009b870fc58900007ffffb81480000a99ae828ec8348e3014cf8246c894ce8246c8948fc8949f38948f02464894ce0245c8948 24576
0 W 0x6240 ffffffa900000089840f00000000002a270205c748c48949fff883480000b6bce804000000be00004022b9ffffffffb841d231c93145000000bb840fff854800 24576
0 W 0x6280 246c8b4808245c8b4818245c894910245c8949e0894c000000d6850fc0850000b6bee8de8948eb2148d5f748eb0148ed6348e7894c00000003ba01ed83757503 24576
0 W 0x62c0 c7894804000000be00401f0fffffff46e904000000bb0000008e870f04000000fc8149ffffff5d860f04000000fb8148c328c4834820246c8b4c1824648b4c10 24576
0 W 0x6300 bc8d492375c52949e5894dfc000000e4814903ffffffa08d4c6d74fff883480000b5ffe808000000be00004022b9ffffffffb841ff31d231c931450000b63be8 24576
0 W 0x6340 90ffffff38e9c031001f0fd7eb0400000024bc8d490000b5d5e8ee894cc789489066ffffff25e90000b5e7e8ee294c04000000be002a262c3d89480400000024 24576
0 W 0x6380 fffec2840f03ffffffa9c274c48949fff883480000b573e804000000be00004022b9c08941ff31d231c93145ffffff23e9c0310000b5b3e8e7894c04000000be 24576
0 W 0x63c0 48528b4100001148ec8148535554415541d6894d56410047f94fbeff894957410000000000841f0f2e6666fffffee2e9c0310000b572e8c7894804000000beff 24576
0 W 0x6400 c93120245c8d480000550e850f37b10f410aeb0000551a850f37b10f41f00d7400002a37c03d83c03100000001be000199eee8c0314842894101428d407a8b49 24576
0 W 0x6440 0000000000841f0ff8e68348d23108708b480000020f840fc08548080f448b490000000000841f0f2e66ed31ff3100000000182444c74800000000102444c748 24576
0 W 0x6480 7550f9834808c18348108b548948088b54af0f488b048948f1468d48c70148188b548948c6af0f48088b748948d50148d08948f375c0854801c2834810408b48 24576
0 W 0x64c0 6024b48b480000017024a48b4c0000017824ac8b4c000002b4840fd739487074d2854810578b4868478d4d18246c8948ed3145e43145587f8d4910247c89489f 24576
0 W 0x6500 017024a4894c0000017824ac894cde75d73948c8420f48c13948f0470f48c63948c4014901c5834910528b4808428b480000441f0f00000168248c8b48000001 24576
0 W 0x6540 00f041c74900000000f841c7490000000001c749ffffffffe841c74910508b49000007e0908d4d000001788b8d4c00000168248c89480000016024b489480000 24576
0 W 0x6580 c2394cc8420f48c13948f0470f48c63948c7014801c5834810528b4808428b480000441f0f66c931ff31ed31ffffffffc6c7484474d039494974d28548000000 24576
0 W 0x65c0 00002a35e03d83ffffff67850fd0394d20c18349c50149f861034d10c0834900000000e841c7490875c08548018b49f0498949f8798949298949e8718949de75 24576
0 W 0x6600 00000000801f0f18eb304601492066014d1024448b4818c3834838460149286e014d1824448b48ed310000534b850f0fff4109eb00005356850f0fff41f00c74 24576
0 W 0x6640 44c748c3eb00019785e8c031f8438b4c407e8b490047fb38bee8538b48f04b8b48e174c9854de6740b8b4c0afd83484d7400000089fd814820c3834801c58348 24576
0 W 0x6680 e1894d00000878878b4900000880978b4900000099850fc9854d00000178248c8b4cfffffe0ee9000000008b04c748d23100000000088b44c74800000000188b 24576
0 W 0x66c0 be407e8b49585f8b497e74006a8000ff814900019712e8c031240489481824548b48082454894810244c8b48407e8b490047fbb0bee8894d1056014918460149 24576
0 W 0x6700 415d415c415d5b0047f967bf00001148c4814840768b4906014918438b480846014910438b48000196e6e810538b48184b8b48fc000000e38148c0310047fc58 24576
0 W 0x6740 407e8b49002a20fc158b48ffffff3ae900019690e8c0310000016024948b4800000168248c8b480047fb70be0000017024848b4c407e8b490001a5d8e95f415e 24576
0 W 0x6780 0000000000841f0f2e666666fffffd9ee90000017024a48b4c0000017824ac8b4c8aeb06014908460149002a20e2058b4800019671e8d18948c0310047fc58be 24576
0 W 0x67c0 502444c74800000000682444c74800000000582444c74800000000782444c77024748948002a00a40d8b000000f9850fff8500000088ec81485300000016b855 24576
0 W 0x6800 70bf30246c8d48000000a7880f00000000302444c74800000000382444c74800000000402444c74800000000482444c74800000000602444c748c98500000000 24576
0 W 0x6840 485824448b4c0047fca0be50244c8b4c3024448b48e575006a8000fb8148000008689b8b48fffffb85e8ea8949df8948001f0f0001a4d3e8006a8000bb0047f9 24576
0 W 0x6880 05058b0824448948002a2028058b4810244489484824448b4818244489484024448b4820244489483824448b48282444894870247c8b486824548b4860244c8b 24576
0 W 0x68c0 00002a20183d834820ec8348f389485390ffffff4ae97024748b48ffffeb9be800000000801f0fc35d5b00000088c48148c03100019533e8c031240489002a20 24576
0 W 0x6900 490e74c0854d002a1fde058b4c0000504a850f002a1fdf35b10f0deb00005059850f002a1fee35b10ff0107400002a32cc3d83c03100000001be000000b2840f 24576
0 W 0x6940 5c3d83c03100000001be4274c0854d0000502b850f002a1fa10dff0ceb00005039850f002a1faf0dfff00f7400002a328c3d83002a1fcb05894800000870808b 24576
0 W 0x6980 48002a16190d8b4800000000801f0fc35b20c48348c0894c00894c64ffffffd8c0c7480000501e850f30b10f410aeb0000502a850f30b10f41f00d7400002a32 24576
0 W 0x69c0 ebdb3100000001b900000430840fc0854d002a15f1058b4c0000011f870ff1394800000128830ff73948002a1f3a358b48002a1ee93d8b48000000f8840fc985 24576
0 W 0x6a00 006a8000fe81480f74d284d375002a15ad353b4800000868b08b497574c08508b10f4104eb08b10f41f0077400002a31cc3d83d889f0894900000000801f0f0a 24576
0 W 0x6a40 002a315f3d8300000001bef074c6394c001f0fffffff3be9c03145eb75f0394900000868808b4d177404e08304408b410000441f0ff08949002a1e2035440f48 24576
0 W 0x6a80 00401f0fc35b20c48348c0894c002a152d05894800000868808b4900894c64ffffffd8c0c74800004f3c850f30b10f410aeb00004f48850f30b10f41f00d7400 24576
0 W 0x6ac0 3948002a1e12358b48002a1dc13d8b480000000000841f0f2e66fffffef0e9002a1e2f358b48002a1dde3d8b48002a15050d89482474c98548002a1df90d8b48 24576
0 W 0x6b00 8548fffff6c2e8000008b8bb8d48002a1d76358b48fffffea4850ff03948002a1dee05b10f4cf001740000000018253c8364f0894801468d4c000002f9820ff7 24576
0 W 0x6b40 1d6f0f66d18948c06c0f6600000848988d480824447e0ff3c0ef0f4566082454894800000319850f00894c0fc2f620408d4c00000088908d4800000351840fc0 24576
0 W 0x6b80 66e66f0f66dafe0f4166cb6f0f660007954e056f0f66000795462d6f0f660007953e356f0f66000795360d6f0f44660007952f156f0f4466f86f0f660007952c 24576
0 W 0x6bc0 6f0f66da660f4466d1620f6620d5730f4166e86f0f446608d2700f66d6f40f6608c9700f66ccf40f6604dc730f6604d9730f66d16f0f66c9fe0f4166d86f0f45 24576
0 W 0x6c00 0f6620f2730f66d0f40f6620d2730f66e4d40f4166e0f40f446620f4730f66e5f40f4166d46f0f66e46f0f4466e5d40f66cb6a0f4166e3620f4166ca6f0f66e2 24576
0 W 0x6c40 6f0f66ccd40f6620f1730f66c8f40f6620d1730f66e3d40f4166d8f40f446620f4730f66e5f40f4166cc6f0f66dc6f0f4466e5d40f66d7d40f66e16f0f66d4d4 24576
0 W 0x6c80 000007b08a8d48fffffef9850fd9394840c1834830497f0f6620517f0f66c96d0f66d16c0f66d16f0f6610517f0f66217f0f66d26d0f66e26c0f66cfd40f66e2 24576
0 W 0x6cc0 c9830448894102c98304488b410000016e840f006a8000f881491049894818498948000007d08a8d481049894818498948000007c08a8d481049894818498948 24576
0 W 0x6d00 10c28348da294807740fe383002a1bec0d0148000008788889490000088088894900000888908d495850894910488b480448894110ea834800000898988d4901 24576
0 W 0x6d40 6e850f30b10f41f00d7400002a2e6a3d83d08900894c64d231ffffffd8c0c7480842894801c88348de890000000000c741d0294800000001bb58508949c80148 24576
0 W 0x6d80 002a1aa8058b4800004c53850f002a1b5935b10f0deb00004c62850f002a1b6835b10ff0107400002a2e463d83d089de8900004c62850f30b10f410aeb00004c 24576
0 W 0x6dc0 0000000000841f0f66fffffbb1e900004c39850f002a1b200dff0ceb00004c47850f002a1b2e0dfff00f7400002a2e0b3d83002a1a9a05894c00000868808949 24576
0 W 0x6e00 c748fffffbbae9006a8000b841006a8000002a11ad05c74800401f0ffffffba4e9002a11b90d8948c8634803e0c12c7e182454b60fc0850000ae57e818245488 24576
0 W 0x6e40 0868988d4878488d48fffffe87e9002a11920d8b00000080002a1a9405c748fffffb75e9002a1ab4358b4800000010b9002a1a683d8b4800000010002a118f05 24576
0 W 0x6e80 ff48f001740000000018253c8364fffffc95850fc08548fffff357e8000008b8bf002a1a09358b48fffffe4ee9ef75d9394810c1834810498948184989480000 24576
0 W 0x6ec0 006a8000bbed89410029f960058b4800000206880f002a19f52d8b000029f99b3d8318ec834853555441554156415741001f0ffffffadbe9c03145002a1a4b0d 24576
0 W 0x6f00 0111840fc0854858438b4800004b15850f33b10f09eb00004b20850f33b10ff00c7400002a2cc23d83c03100000001be74508902ca83f2894474708b44e43145 24576
0 W 0x6f40 bb8d4858738d48f88948d4750afe834801c68348ec75c08548d10148f8e2834810408b4808508b4800401f0f1874c0854808f3448b48f631c93108788b480000 24576
0 W 0x6f80 bb8b4cd375fe394810c68348ec75f03948d10148f8e2834818408b4808508b4800000000801f0f1b74f0394818468b480000441f0fc10148f8e0834800000848 24576
0 W 0x6fc0 548b00018e02e80c247c8944c0310047f991befa89440029f86e3d8b4800018e1de8c03108244489c829f889440047f986bee289440029f88d3d8b4800000878 24576
0 W 0x7000 0008689b8b4800004a2b850f0bff08eb00004a35850f0bfff00b7400002a2bbb3d8308246c03440c246c0300018debe8c0310047f9aabe0029f84f3d8b480824 28672
0 W 0x7040 4800019fe1e80047f9c3bf00000001be00000014ba0029f7ed0d8b48fffffedee958438b48ffffdca5e8df8948fffffebde901c483411a74006a8000fb814800 28672
0 W 0x7080 3de8c0310047f9d8be0029f7a13d8b48002a1820158b00018d56e8c0310047f9aabeea89440029f7bd3d8b4800018d6ce8c0310047f991beea890029f7d23d8b 28672
0 W 0x70c0 fffdf0e9ffffe384e8c35f415e415d415c415d5b18c48348747009440029f774058b4800018d23e8c0310047f9f1be0029f7873d8b48002a181e158b4800018d 28672
0 W 0x7100 002a0ec035b10ff0107400002a2aaa3d83c03100000001be000001e8880ff6850029f760358b08ec8348f38953fd89550000000000841f0f2e666666666666ff 28672
0 W 0x7140 72002a17391d39481474db854800000001ba002a17521d8b48597609fd83ffffdb9ee808c583006a8000bf0000492b850f002a0eb135b10f0deb0000493a850f 28672
0 W 0x7180 00000000801f0fc35d5bd08908c48348000048ef850f002a0e560dff0ceb000048fd850f002a0e640dfff00f7400002a2a4d3d83002a172c1d894801eb83480b 28672
0 W 0x71c0 00000001badb6348ffffff6f8e0fdb850000000000841f0f668cebd231002a16dd1d8b4800000144860f000000a0fb8100000000801f0f00480058ed24ffed89 28672
0 W 0x7200 02000000fb81d23100000000801f0fffffff42e9002a16941d8b4800000001ba00000001002a16b405c7002a16b61d8900401f0fffffff6ce9002a16b91d8948 28672
0 W 0x7240 2a16271d894800000001ba00000001002a165f05c7db634800401f0fffffff0fe9002a16611d8b4800000001002a167c05c7002a16621d894801b2db63480c77 28672
0 W 0x7280 01ba002a164a1d89001f0ffffffebee9002a16101d8b48002a15f71d894800000001ba00000001002a163705c7db6348001f0ffffffee6e9002a16381d8b4800 28672
0 W 0x72c0 15b61d8948db6348fffffe6f8e0fdb850000000000841f0f66fffffe8ce9002a15de1d8b4800000001ba0029f5ae1d8990fffffea4e9002a15f61d8b48000000 28672
0 W 0x7300 fffe32e900000001ba002a15891d8b48002a15d00589481f7500000010b8db850000441f0f66fffffe0ee9ffffe16be80000000000841f0f66fffffe60e9002a 28672
0 W 0x7340 48c589481c24548908468b4848ec8348f3894853555441fd89495541564157410000000000841f0f2e6666d4ebf0e0834808c08348c3634800000000801f0fff 28672
0 W 0x7380 0f10f8834808428b482e148d48000000d5870f002a15532d3b4800000629860f1ffd834800000629850f0fc6f64000000633870fd63948daf748ea8948f8e583 28672
0 W 0x73c0 548b49e88902ed8304edc1fe04658341f001740000000018253c8364000006d9850ff685002a152c358b00000663830f00000878873b48f8e083480000067486 28672
0 W 0x7400 0c74f72040c7950f40d28548000004f9840fc28948c3394800401f0f10ebc6950f40c98545ffffffffb8411c244c8b440000051d840fd3394808c54c8d4908c5 28672
0 W 0x7440 5d415c415d5b48c4834800000677850fe839410974ff8440c075c2394819b10f48f001740000000018253c8364d089481053894802e8834104e8c14108428b4c 28672
0 W 0x7480 748b4d000008ba840f2b248d4c020445f6410000075d840fc3394858458b49000002af840fc08545ff31451c24448b44000003e0850f02a8001f0fc35f415e41 28672
0 W 0x74c0 2948038b484475010843f6000005e0850ff685002a141b358b00000886830f00000878b53b4df8e6834900000897860f10fe834900000897840f01c6f6410824 28672
0 W 0x7500 4d000006d6850fd2854820538b480d761042894818508948000003ff087b814800000711850f105a3b480000071b850f18583b4818538b4810438b48c50148c3 28672
0 W 0x7540 18508948000003ff08247c81490000074c850f10623b4c00000756850f18603b4c1824548b491024448b4900000233850f01083444f643000003bf840f586539 28672
0 W 0x7580 00002043c74810761843894810538948000003fffd8148000003a7850f18423b4810508b4858458d49f5014c00000655850fd285482024548b490e7610428948 28672
0 W 0x75c0 006a8000fd814900000327840f010445f64100000242860f0000fffffd8148084389482b2c894801c88348185a8948e8894810588948000000002843c7480000 28672
0 W 0x7600 48d1894800000162850fe83948586f8b49202454894820438d483b8b4c2824448948fc000000e38148002a12c1158b002a1297058b48585d8b49000002ca840f 28672
0 W 0x7640 18558b4810458b482a2b483e75d58948010842f61024548b480000a2d9e8102454894804000000be00401f0f7cebc58949200a448d48eb894cdf89482824548b 28672
0 W 0x7680 586f894901ce83492024448d4900000516850fd2854820558b480d761042894818508948000003ff087d814800000345850f106a3b480000034f850f18683b48 28672
0 W 0x76c0 04000000b932034c0375f6894901e18310c68348f8e68348ce8948084a8b48122b48f004548d491024448b4908678b4ce7894c000001f3850fc539480875894c 28672
0 W 0x7700 3105c748ffffff1c850f002a124205394804000000878d48002a11f805294810478b480000087887294910478b4800000086820fe8394cf0014cc88948c12948 28672
0 W 0x7740 1ee901b74100004343850f0075b10f410beb00004350850f0075b10f41f00e7400002a24803d831c24448b00000001be00401f0fffffff0ce900000000002a12 28672
0 W 0x7780 4c202474f748df02448d49d231f8e28349f2894d2824442b482024448b4808758b4cfb8948dd89490000441f0ffffffe04e9fe08246483490000441f0ffffffd 28672
0 W 0x77c0 894c00000004ba333c8d4a00000302850fc084c0950f000003448c0f000029f0a43d83537e1ffe8349e6294d10738b4c607c2024643b4c202464af0f4cff608d 28672
0 W 0x7800 239d3d83fffffc3a850fff851c247c8b001f0f0855894c002a10f725294c01ca834900000878a7294d1073894ce2294d0824548b4c0000a175e8082454894ce6 28672
0 W 0x7840 48f72948002a105c058bdf8948368b480000441f0fc35f415e415d415c415d5b48c483480000427e850f004dff410aeb0000428a850f004dff41f00d7400002a 28672
0 W 0x7880 0000000000841f0fc35f415e415d415c415d5b48c483480000a097e8002a103c35294801002a102b2d8300000318850fc28548f20948fa894801e8830035748d 28672
0 W 0x78c0 ff2ee9ffffcfb3e8006a8000be002a0fb53d8b48ffffff44820f002a0fba053b48f8e0834808408b48002a0781058b480000441f0ffffffed7e9e3894cdd8949 28672
0 W 0x7900 480029ef453d8b2175001c247c830047fdc0befffffccce9ffffd3d8e8ef894c90fffffcc2e90843894801c88348e88948585d8949f5014c0000441f0f66ffff 28672
0 W 0x7940 0029ef043d8b0000417c850f004dff410aeb00004188850f004dff41f00d7400002a227f3d83d874ff85450047fea0befffffb26e9ffffd2d5e8e9894c10538d 28672
0 W 0x7980 00004152850f0075b10f410beb0000415f850f0075b10f41f00e7400002a223b3d83c03100000001befffffadf840f001c247c83ffffd294e8e9894c10538d48 28672
0 W 0x79c0 f9894c0029ee873d8b00004137850f0fff4109eb00004142850f0fff41f00c7400002a22003d83ffffff59e90047fa23beffffff63e90047fa0bbefffffab1e9 28672
0 W 0x7a00 10be001c247c83fffffc7ae900004115850f37b10f410aeb00004121850f37b10f41f00d7400002a21c53d83c03100000001beffffd213e80047f8e1beea8948 28672
0 W 0x7a40 f883480047fe10be08428b48000040f0850f0075b10f410beb000040fd850f0075b10f41f00e7400002a21873d831c24448b00000001beffffff11850f0047fe 28672
0 W 0x7a80 558d48fffff919e9000040c8850f004dff410aeb000040d4850f004dff41f00d7400002a21413d83fffffec2830f00000878853b49f8e08348fffffed3860f10 28672
0 W 0x7ac0 8341c93145333c8d4afffffe3be90047fa38befffffa08e9ffff8818e8000000ffe681107b8d48f8558d48fffff90fe9ffff8830e8000000ffe681107b8d48f8 28672
0 W 0x7b00 00be66750029ed4c0589c0850029e544058bfffffce2e91873894cfffffd0b840f0824548b4cfff8834800009e0ae8082454894ce6894c00000032b9d231ffc8 28672
0 W 0x7b40 548b4c10244c8bc085d23100008cb4e810244489082454894cc78900000001ba3f24748d4843780824548b4cc08500008c77e8082454894c0047fec8bf000800 28672
0 W 0x7b80 e80047fb18bec93110538d480029ecd03d8bfffffc3fe9c0950fc0850029ece4058b050f00000003b8f963480029ecf41589c2940f323f247c80d2310a7e0824 28672
0 W 0x7bc0 448b49284289482824448b49000001a1840f0020788348fffffacae92050894828458b482842894828458b480000014f840f0020788348fffff8ade9ffffd05c 28672
0 W 0x7c00 0f004dff41f00d7400002a1fa83d83fffff90ee92050894828438b482842894828438b4879740020788348fffffd40e90047fe38befffff989e9205089482824 28672
0 W 0x7c40 35850f0075b10f41f00e7400002a1f6b3d83c03100000001beffffcfb9e80047f8e1beda8948e9894c0029ec2d3d8b00003f4b850f004dff410aeb00003f5785 28672
0 W 0x7c80 83fffff880e92042894828538b482842894820538b482850894828538b4820508948000000ab840fd33948fffff8aae900003f28850f0075b10f410beb00003f 28672
0 W 0x7cc0 1edd3d83c03100000001beffffcf2be80047f8e1bee2894ce9894c0029eb9f3d8b00003ef5850f004dff410aeb00003f01850f004dff41f00d7400002a1f1a3d 28672
0 W 0x7d00 28558b482842894820558b482850894828558b48205089482e74d53948fffff871e900003ed2850f0075b10f410beb00003edf850f0075b10f41f00e7400002a 28672
0 W 0x7d40 0047fe58be08508b48fffffbdee90047fde8befffffbe8e90047fe78befffff950e92040894828408948fffff7e9e92040894828408948fffff96ae920428948 28672
0 W 0x7d80 8948fffff7d6e9204289482824548b49284289482024548b49285089482824548b49205089482474d43949fffffbc0e9fffff72d820fc43949d00148f8e28348 28672
0 W 0x7dc0 940fff38834864d231ffffffd8c0c7482075006a8000bf04e2833a7502c2f6f0778d48f8578b4800000087840fff85480000441f0ffffff7c9e9204089482840 28672
0 W 0x7e00 ea83f10948c18948c82948002a0aa3158b0a348d48f08948f8e28348f04f8b489066d2eb388b48fc0000002548f089480000000000841f0f2e66fffff55ae9c2 28672
0 W 0x7e40 0000000000841f0f66ffffcda9e90047fb18bec9310029ea193d8bfa8948c3f300401f0f00009ae4e9002a0a8935294801002a0a782d83c789481c75d1854801 28672
0 W 0x7e80 ffffcac0e8df8948f63100003d56850f002a015035b10f0deb00003d65850f002a015f35b10ff0107400002a1d493d83c03100000001be7c74fb894853ff8548 28672
0 W 0x7ec0 0f002a01010dff0ceb00003d34850f002a010f0dfff00f7400002a1cf83d83fffff47fe8006a8000bf00000001ba3e75020840f6000000ac840fc68948c08548 28672
0 W 0x7f00 8348f78948168b4808468b4800003d16850f002a00d20dff0ceb00003d24850f002a00e00dfff00f7400002a1cc93d830000000000841f0f66c35b00003d2685 28672
0 W 0x7f40 7400002a1c613d830000441f0f000099cde9002a097205294801002a09612d83c689485b5975d1854801ea83c10948f98948002a098a158bd00148d72948f8e0 28672
0 W 0x7f80 10568d480029e8c83d8b5bffffcc6be90047fa0bbe5b006a8000b90029e8df3d8bda894800003ccd850f002a006a0dff0ceb00003cdb850f002a00780dfff00f 28672
0 W 0x7fc0 41002a08d92d8b4468ec8348f8247c894cf02474894cfc8949d0245c8948e8246c894cf58948e02464894cd8246c894800401f0fffffcc54e90047fb18bec931 28672
0 W 0x8000 314500000092830fdc3949c32148d0f748e8894c08255c8d4b000001d98d0f002a08ab053b002a08ad058b000001eb870f002a08a13d39481f74f6854801ed83 32768
0 W 0x8040 2a08471589002a0855153b01c283002a0856158b0850894802ca8348da89486f74fff88348000098c5e8de894800000003ba00000022b9ffffffffb841ff31c9 32768
0 W 0x8080 4c50246c8b4c4824648b4c40246c8b4838245c8b4810c08348002a08411d89480776002a08421d8948002a08511d3b48002a08501d0348002a08471589067e00 32768
0 W 0x80c0 df8949e2894c00000196840f006a8000fd8148f8e6834920245c894808738b4c585d8b48cf74012f2444c6ed8548c0319066c368c4834860247c8b4c5824748b 32768
0 W 0x8100 10148d48c1894898481824448b4c01e8830824548b4800008a96e8182444894c0824548948000000f58e0fd2854810478b4d20c28348fc000000e78149f2294c 32768
0 W 0x8140 c2894820247c2b4cc7014910478b49000008788d0148c1294c104f8949000001d5870ff93948187f8b49000000ba870f04000000f98148c1014cd12148d1f748 32768
0 W 0x8180 820fd03948f8e083482024548d4908438b4800000880858948077600000880853b4800000878858b480878894c01cf8349002a0791150148c2294c2024448b48 32768
0 W 0x81c0 9066fffffeade910438d48084689480853894858758948ca094801c88348e0294c02e1c14801ca834823348d4ac1950fe2894c006a8000fd8148c931000001ac 32768
0 W 0x8200 15014810508b48e04e8d490000087895014810508b48000001e6840fc08548ffffdfdfe840247c8d49002a0691358b480000441f0f66fffffed2e9002f2444c6 32768
0 W 0x8240 48168948d1894800000087870f000000010846c74813348d4810518d48085089481ff9834801ca834820ea83485845894820c083480878894c288948002a06dc 32768
0 W 0x8280 894cff854dd7214def014df8450f4c02e283f7294dc789492004448d49d2f749ea894d0029fd67158b002a0611058b4890ffffff08e9c38948084b894801c983 32768
0 W 0x82c0 00401f0ffffffe9be90029fd611d8b48000002c9820ffc394df9470f4c00100000bf41000ffffff98148d1214cf9014c00354c8d4b0b75d285000000c18f0ff9 32768
0 W 0x8300 00000003bace894800000000801f0ffffffe66e9585d8b48fffff038e8ef894800000001bade8948084b89480000001006c74800000011e83344c74a05c98348 32768
0 W 0x8340 c0310000000c00c764ffffffd0c0c748fffffdf3e9585d8b48184f8949fffffead850f1824448b4c08244c8b48c0850000960fe83f3c8d49fe294808244c8948 32768
0 W 0x8380 0002c6850fc085480029fc18058b48000002f1840f1824548b4c08244c8b48c28948c085480029e4c515ff08247c894cff894c182454894c001f0ffffffd26e9 32768
0 W 0x83c0 894c01ce834937348d4f3274c084453775002a04893d8948ca3948330c8d4a002a04973d0348ff894c00000165840f00002a05273d8348c03100000001b84100 32768
0 W 0x8400 850fd18948c084457874020029fbce05f6c6950f40f6854d00401f0ffffffd73e9585d8b48fffffc0c840f002f247c809066fffffd89e90029fc4f1d8b480873 32768
0 W 0x8440 48f0894cf0e6834920ee83492f74f68440002a04091501480869894c01cd8349cd29490029fbfb0d8948282c8d4efffffe9e840fc08548ed3145d231000001e3 32768
0 W 0x8480 0fe783d18948c031d789486c75f684400000441f0ffffffcece9cb89480000016d870f00000011183344c74a00000011083344c74a084389481ffe834901c883 32768
0 W 0x84c0 b60f08244c8b48c085480029e36a15ffef894c282c8d4ed5214dd029482a2c8d4efa014c383c8d4e102474884008244c8948f0014c020c8d48f8294810b00974 32768
0 W 0x8500 b5158948ffffff79e9002a03413d8948383c8d48c82948d089482277d13948ffffff31e9ea894c00000149850fd285480029fac0158b4800000142840f102474 32768
0 W 0x8540 ffffc6a0e800000003bf0047fee8be006a8000b90000371c850f0029fa9a0dff0ceb0000372a850f0029faa80dfff00f7400002a16913d83fffffe8fe9002a03 32768
0 W 0x8580 000003bac93145fffffbdee90029faa41d8b48000036fa850f0029fa5935b10f0deb00003709850f0029fa6835b10ff0107400002a16523d83c03100000001be 32768
0 W 0x85c0 f8014cfffffcf3840fc08548020029fa100d83fffffd03840f1824548b4cc28948fff8834800009345e8182454894cfe894c00000022b9ffffffffb841ff3100 32768
[...]
i0.defaultMemory.channel3.FRFCFS.channel3.rank0.bank4.bank_write_to_read_ratio 0.0186916
i0.defaultMemory.channel3.FRFCFS.channel3.rank0.bank4.command_per_request 5.97196
i0.defaultMemory.channel3.FRFCFS.channel3.rank0.bank4.bank_read_to_write_ratio 0.0373832
i0.defaultMemory.channel3.FRFCFS.channel3.rank0.bank5.decoder.migratedAccesses 0
i0.defaultMemory.channel3.FRFCFS.channel3.rank0.bank5.subarray0.subArrayEnergy 0nJ
i0.defaultMemory.channel3.FRFCFS.channel3.rank0.bank5.subarray0.activeEnergy 0nJ
i0.defaultMemory.channel3.FRFCFS.channel3.rank0.bank5.subarray0.burstEnergy 0nJ
i0.defaultMemory.channel3.FRFCFS.channel3.rank0.bank5.subarray0.writeEnergy 0nJ
i0.defaultMemory.channel3.FRFCFS.channel3.rank0.bank5.subarray0.refreshEnergy 0nJ
i0.defaultMemory.channel3.FRFCFS.channel3.rank0.bank5.subarray0.cancelledWrites 0
i0.defaultMemory.channel3.FRFCFS.channel3.rank0.bank5.subarray0.cancelledWriteTime 0
i0.defaultMemory.channel3.FRFCFS.channel3.rank0.bank5.subarray0.pausedWrites 0
i0.defaultMemory.channel3.FRFCFS.channel3.rank0.bank5.subarray0.averagePausesPerRequest 0
i0.defaultMemory.channel3.FRFCFS.channel3.rank0.bank5.subarray0.measuredPauses 0
i0.defaultMemory.channel3.FRFCFS.channel3.rank0.bank5.subarray0.averagePausedRequestProgress 0
i0.defaultMemory.channel3.FRFCFS.channel3.rank0.bank5.subarray0.measuredProgresses 0
i0.defaultMemory.channel3.FRFCFS.channel3.rank0.bank5.subarray0.reads 0
i0.defaultMemory.channel3.FRFCFS.channel3.rank0.bank5.subarray0.writes 0
i0.defaultMemory.channel3.FRFCFS.channel3.rank0.bank5.subarray0.activates 0
i0.defaultMemory.channel3.FRFCFS.channel3.rank0.bank5.subarray0.precharges 0
i0.defaultMemory.channel3.FRFCFS.channel3.rank0.bank5.subarray0.refreshes 0
i0.defaultMemory.channel3.FRFCFS.channel3.rank0.bank5.subarray0.worstCaseEndurance 18446744073709551615
i0.defaultMemory.channel3.FRFCFS.channel3.rank0.bank5.subarray0.averageEndurance 0
i0.defaultMemory.channel3.FRFCFS.channel3.rank0.bank5.subarray0.actWaits 0
i0.defaultMemory.channel3.FRFCFS.channel3.rank0.bank5.subarray0.actWaitTotal 0
i0.defaultMemory.channel3.FRFCFS.channel3.rank0.bank5.subarray0.actWaitAverage -nan
i0.defaultMemory.channel3.FRFCFS.channel3.rank0.bank5.subarray0.worstCaseWrite 0
i0.defaultMemory.channel3.FRFCFS.channel3.rank0.bank5.subarray0.num00Writes 0
i0.defaultMemory.channel3.FRFCFS.channel3.rank0.bank5.subarray0.num01Writes 0
i0.defaultMemory.channel3.FRFCFS.channel3.rank0.bank5.subarray0.num10Writes 0
i0.defaultMemory.channel3.FRFCFS.channel3.rank0.bank5.subarray0.num11Writes 0
i0.defaultMemory.channel3.FRFCFS.channel3.rank0.bank5.subarray0.averageWriteTime 0
i0.defaultMemory.channel3.FRFCFS.channel3.rank0.bank5.subarray0.measuredWriteTimes 0
i0.defaultMemory.channel3.FRFCFS.channel3.rank0.bank5.subarray0.mlcTimingHisto {}
i0.defaultMemory.channel3.FRFCFS.channel3.rank0.bank5.subarray0.cancelCountHisto {}
i0.defaultMemory.channel3.FRFCFS.channel3.rank0.bank5.subarray0.wpPauseHisto {}
i0.defaultMemory.channel3.FRFCFS.channel3.rank0.bank5.subarray0.wpCancelHisto {}
i0.defaultMemory.channel3.FRFCFS.channel3.rank0.bank5.bankEnergy 0nJ
i0.defaultMemory.channel3.FRFCFS.channel3.rank0.bank5.activeEnergy 0nJ
i0.defaultMemory.channel3.FRFCFS.channel3.rank0.bank5.burstEnergy 0nJ
i0.defaultMemory.channel3.FRFCFS.channel3.rank0.bank5.refreshEnergy 0nJ
i0.defaultMemory.channel3.FRFCFS.channel3.rank0.bank5.bankPower 0W
i0.defaultMemory.channel3.FRFCFS.channel3.rank0.bank5.activePower 0W
i0.defaultMemory.channel3.FRFCFS.channel3.rank0.bank5.burstPower 0W
i0.defaultMemory.channel3.FRFCFS.channel3.rank0.bank5.refreshPower 0W
i0.defaultMemory.channel3.FRFCFS.channel3.rank0.bank5.bandwidth 0MB/s
i0.defaultMemory.channel3.FRFCFS.channel3.rank0.bank5.dataCycles 0
i0.defaultMemory.channel3.FRFCFS.channel3.rank0.bank5.powerCycles 16518
i0.defaultMemory.channel3.FRFCFS.channel3.rank0.bank5.utilization 0
i0.defaultMemory.channel3.FRFCFS.channel3.rank0.bank5.reads 0
i0.defaultMemory.channel3.FRFCFS.channel3.rank0.bank5.writes 0
i0.defaultMemory.channel3.FRFCFS.channel3.rank0.bank5.activates 0
i0.defaultMemory.channel3.FRFCFS.channel3.rank0.bank5.precharges 0
i0.defaultMemory.channel3.FRFCFS.channel3.rank0.bank5.refreshes 0
i0.defaultMemory.channel3.FRFCFS.channel3.rank0.bank5.activeCycles 0
i0.defaultMemory.channel3.FRFCFS.channel3.rank0.bank5.standbyCycles 16518
i0.defaultMemory.channel3.FRFCFS.channel3.rank0.bank5.fastExitActiveCycles 0
i0.defaultMemory.channel3.FRFCFS.channel3.rank0.bank5.fastExitPrechargeCycles 261183
i0.defaultMemory.channel3.FRFCFS.channel3.rank0.bank5.slowExitPrechargeCycles 0
i0.defaultMemory.channel3.FRFCFS.channel3.rank0.bank5.actWaits 0
i0.defaultMemory.channel3.FRFCFS.channel3.rank0.bank5.actWaitTotal 0
i0.defaultMemory.channel3.FRFCFS.channel3.rank0.bank5.actWaitAverage -nan
i0.defaultMemory.channel3.FRFCFS.channel3.rank0.bank5.averageEndurance 0
i0.defaultMemory.channel3.FRFCFS.channel3.rank0.bank5.worstCaseEndurance 18446744073709551615
i0.defaultMemory.channel3.FRFCFS.channel3.rank0.bank5.write_to_read_counter 0
i0.defaultMemory.channel3.FRFCFS.channel3.rank0.bank5.read_to_write_counter 0
i0.defaultMemory.channel3.FRFCFS.channel3.rank0.bank5.command_counter 457
i0.defaultMemory.channel3.FRFCFS.channel3.rank0.bank5.command_write_counter 0
i0.defaultMemory.channel3.FRFCFS.channel3.rank0.bank5.command_read_counter 0
i0.defaultMemory.channel3.FRFCFS.channel3.rank0.bank5.precharge_command_counter 0
i0.defaultMemory.channel3.FRFCFS.channel3.rank0.bank5.precharge_command_ratio 0
i0.defaultMemory.channel3.FRFCFS.channel3.rank0.bank5.bank_write_to_read_ratio -nan
i0.defaultMemory.channel3.FRFCFS.channel3.rank0.bank5.command_per_request inf
i0.defaultMemory.channel3.FRFCFS.channel3.rank0.bank5.bank_read_to_write_ratio -nan
i0.defaultMemory.channel3.FRFCFS.channel3.rank0.bank6.decoder.migratedAccesses 0
i0.defaultMemory.channel3.FRFCFS.channel3.rank0.bank6.subarray0.subArrayEnergy 0nJ
i0.defaultMemory.channel3.FRFCFS.channel3.rank0.bank6.subarray0.activeEnergy 0nJ
i0.defaultMemory.channel3.FRFCFS.channel3.rank0.bank6.subarray0.burstEnergy 0nJ
i0.defaultMemory.channel3.FRFCFS.channel3.rank0.bank6.subarray0.writeEnergy 0nJ
i0.defaultMemory.channel3.FRFCFS.channel3.rank0.bank6.subarray0.refreshEnergy 0nJ
i0.defaultMemory.channel3.FRFCFS.channel3.rank0.bank6.subarray0.cancelledWrites 0
i0.defaultMemory.channel3.FRFCFS.channel3.rank0.bank6.subarray0.cancelledWriteTime 0
i0.defaultMemory.channel3.FRFCFS.channel3.rank0.bank6.subarray0.pausedWrites 0
i0.defaultMemory.channel3.FRFCFS.channel3.rank0.bank6.subarray0.averagePausesPerRequest 0
i0.defaultMemory.channel3.FRFCFS.channel3.rank0.bank6.subarray0.measuredPauses 0
i0.defaultMemory.channel3.FRFCFS.channel3.rank0.bank6.subarray0.averagePausedRequestProgress 0
i0.defaultMemory.channel3.FRFCFS.channel3.rank0.bank6.subarray0.measuredProgresses 0
i0.defaultMemory.channel3.FRFCFS.channel3.rank0.bank6.subarray0.reads 0
i0.defaultMemory.channel3.FRFCFS.channel3.rank0.bank6.subarray0.writes 0
i0.defaultMemory.channel3.FRFCFS.channel3.rank0.bank6.subarray0.activates 0
i0.defaultMemory.channel3.FRFCFS.channel3.rank0.bank6.subarray0.precharges 0
i0.defaultMemory.channel3.FRFCFS.channel3.rank0.bank6.subarray0.refreshes 0
i0.defaultMemory.channel3.FRFCFS.channel3.rank0.bank6.subarray0.worstCaseEndurance 18446744073709551615
i0.defaultMemory.channel3.FRFCFS.channel3.rank0.bank6.subarray0.averageEndurance 0
i0.defaultMemory.channel3.FRFCFS.channel3.rank0.bank6.subarray0.actWaits 0
i0.defaultMemory.channel3.FRFCFS.channel3.rank0.bank6.subarray0.actWaitTotal 0
i0.defaultMemory.channel3.FRFCFS.channel3.rank0.bank6.subarray0.actWaitAverage -nan
i0.defaultMemory.channel3.FRFCFS.channel3.rank0.bank6.subarray0.worstCaseWrite 0
i0.defaultMemory.channel3.FRFCFS.channel3.rank0.bank6.subarray0.num00Writes 0
i0.defaultMemory.channel3.FRFCFS.channel3.rank0.bank6.subarray0.num01Writes 0
i0.defaultMemory.channel3.FRFCFS.channel3.rank0.bank6.subarray0.num10Writes 0
i0.defaultMemory.channel3.FRFCFS.channel3.rank0.bank6.subarray0.num11Writes 0
i0.defaultMemory.channel3.FRFCFS.channel3.rank0.bank6.subarray0.averageWriteTime 0
i0.defaultMemory.channel3.FRFCFS.channel3.rank0.bank6.subarray0.measuredWriteTimes 0
i0.defaultMemory.channel3.FRFCFS.channel3.rank0.bank6.subarray0.mlcTimingHisto {}
i0.defaultMemory.channel3.FRFCFS.channel3.rank0.bank6.subarray0.cancelCountHisto {}
i0.defaultMemory.channel3.FRFCFS.channel3.rank0.bank6.subarray0.wpPauseHisto {}
i0.defaultMemory.channel3.FRFCFS.channel3.rank0.bank6.subarray0.wpCancelHisto {}
i0.defaultMemory.channel3.FRFCFS.channel3.rank0.bank6.bankEnergy 0nJ
i0.defaultMemory.channel3.FRFCFS.channel3.rank0.bank6.activeEnergy 0nJ
i0.defaultMemory.channel3.FRFCFS.channel3.rank0.bank6.burstEnergy 0nJ
i0.defaultMemory.channel3.FRFCFS.channel3.rank0.bank6.refreshEnergy 0nJ
i0.defaultMemory.channel3.FRFCFS.channel3.rank0.bank6.bankPower 0W
i0.defaultMemory.channel3.FRFCFS.channel3.rank0.bank6.activePower 0W
i0.defaultMemory.channel3.FRFCFS.channel3.rank0.bank6.burstPower 0W
i0.defaultMemory.channel3.FRFCFS.channel3.rank0.bank6.refreshPower 0W
i0.defaultMemory.channel3.FRFCFS.channel3.rank0.bank6.bandwidth 0MB/s
i0.defaultMemory.channel3.FRFCFS.channel3.rank0.bank6.dataCycles 0
i0.defaultMemory.channel3.FRFCFS.channel3.rank0.bank6.powerCycles 16518
i0.defaultMemory.channel3.FRFCFS.channel3.rank0.bank6.utilization 0
i0.defaultMemory.channel3.FRFCFS.channel3.rank0.bank6.reads 0
i0.defaultMemory.channel3.FRFCFS.channel3.rank0.bank6.writes 0
i0.defaultMemory.channel3.FRFCFS.channel3.rank0.bank6.activates 0
i0.defaultMemory.channel3.FRFCFS.channel3.rank0.bank6.precharges 0
i0.defaultMemory.channel3.FRFCFS.channel3.rank0.bank6.refreshes 0
i0.defaultMemory.channel3.FRFCFS.channel3.rank0.bank6.activeCycles 0
i0.defaultMemory.channel3.FRFCFS.channel3.rank0.bank6.standbyCycles 16518
i0.defaultMemory.channel3.FRFCFS.channel3.rank0.bank6.fastExitActiveCycles 0
i0.defaultMemory.channel3.FRFCFS.channel3.rank0.bank6.fastExitPrechargeCycles 261183
i0.defaultMemory.channel3.FRFCFS.channel3.rank0.bank6.slowExitPrechargeCycles 0
i0.defaultMemory.channel3.FRFCFS.channel3.rank0.bank6.actWaits 0
i0.defaultMemory.channel3.FRFCFS.channel3.rank0.bank6.actWaitTotal 0
i0.defaultMemory.channel3.FRFCFS.channel3.rank0.bank6.actWaitAverage -nan
i0.defaultMemory.channel3.FRFCFS.channel3.rank0.bank6.averageEndurance 0
i0.defaultMemory.channel3.FRFCFS.channel3.rank0.bank6.worstCaseEndurance 18446744073709551615
i0.defaultMemory.channel3.FRFCFS.channel3.rank0.bank6.write_to_read_counter 0
i0.defaultMemory.channel3.FRFCFS.channel3.rank0.bank6.read_to_write_counter 0
i0.defaultMemory.channel3.FRFCFS.channel3.rank0.bank6.command_counter 457
i0.defaultMemory.channel3.FRFCFS.channel3.rank0.bank6.command_write_counter 0
i0.defaultMemory.channel3.FRFCFS.channel3.rank0.bank6.command_read_counter 0
i0.defaultMemory.channel3.FRFCFS.channel3.rank0.bank6.precharge_command_counter 0
i0.defaultMemory.channel3.FRFCFS.channel3.rank0.bank6.precharge_command_ratio 0
i0.defaultMemory.channel3.FRFCFS.channel3.rank0.bank6.bank_write_to_read_ratio -nan
i0.defaultMemory.channel3.FRFCFS.channel3.rank0.bank6.command_per_request inf
i0.defaultMemory.channel3.FRFCFS.channel3.rank0.bank6.bank_read_to_write_ratio -nan
i0.defaultMemory.channel3.FRFCFS.channel3.rank0.bank7.decoder.migratedAccesses 0
i0.defaultMemory.channel3.FRFCFS.channel3.rank0.bank7.subarray0.subArrayEnergy 0.17816nJ
i0.defaultMemory.channel3.FRFCFS.channel3.rank0.bank7.subarray0.activeEnergy 0.0812nJ
i0.defaultMemory.channel3.FRFCFS.channel3.rank0.bank7.subarray0.burstEnergy 0.09696nJ
i0.defaultMemory.channel3.FRFCFS.channel3.rank0.bank7.subarray0.writeEnergy 0nJ
i0.defaultMemory.channel3.FRFCFS.channel3.rank0.bank7.subarray0.refreshEnergy 0nJ
i0.defaultMemory.channel3.FRFCFS.channel3.rank0.bank7.subarray0.cancelledWrites 0
i0.defaultMemory.channel3.FRFCFS.channel3.rank0.bank7.subarray0.cancelledWriteTime 0
i0.defaultMemory.channel3.FRFCFS.channel3.rank0.bank7.subarray0.pausedWrites 0
i0.defaultMemory.channel3.FRFCFS.channel3.rank0.bank7.subarray0.averagePausesPerRequest 0
i0.defaultMemory.channel3.FRFCFS.channel3.rank0.bank7.subarray0.measuredPauses 0
i0.defaultMemory.channel3.FRFCFS.channel3.rank0.bank7.subarray0.averagePausedRequestProgress 0
i0.defaultMemory.channel3.FRFCFS.channel3.rank0.bank7.subarray0.measuredProgresses 0
i0.defaultMemory.channel3.FRFCFS.channel3.rank0.bank7.subarray0.reads 60
i0.defaultMemory.channel3.FRFCFS.channel3.rank0.bank7.subarray0.writes 0
i0.defaultMemory.channel3.FRFCFS.channel3.rank0.bank7.subarray0.activates 1
i0.defaultMemory.channel3.FRFCFS.channel3.rank0.bank7.subarray0.precharges 0
i0.defaultMemory.channel3.FRFCFS.channel3.rank0.bank7.subarray0.refreshes 0
i0.defaultMemory.channel3.FRFCFS.channel3.rank0.bank7.subarray0.worstCaseEndurance 18446744073709551615
i0.defaultMemory.channel3.FRFCFS.channel3.rank0.bank7.subarray0.averageEndurance 0
i0.defaultMemory.channel3.FRFCFS.channel3.rank0.bank7.subarray0.actWaits 0
i0.defaultMemory.channel3.FRFCFS.channel3.rank0.bank7.subarray0.actWaitTotal 0
i0.defaultMemory.channel3.FRFCFS.channel3.rank0.bank7.subarray0.actWaitAverage -nan
i0.defaultMemory.channel3.FRFCFS.channel3.rank0.bank7.subarray0.worstCaseWrite 0
i0.defaultMemory.channel3.FRFCFS.channel3.rank0.bank7.subarray0.num00Writes 0
i0.defaultMemory.channel3.FRFCFS.channel3.rank0.bank7.subarray0.num01Writes 0
i0.defaultMemory.channel3.FRFCFS.channel3.rank0.bank7.subarray0.num10Writes 0
i0.defaultMemory.channel3.FRFCFS.channel3.rank0.bank7.subarray0.num11Writes 0
i0.defaultMemory.channel3.FRFCFS.channel3.rank0.bank7.subarray0.averageWriteTime 0
i0.defaultMemory.channel3.FRFCFS.channel3.rank0.bank7.subarray0.measuredWriteTimes 0
i0.defaultMemory.channel3.FRFCFS.channel3.rank0.bank7.subarray0.mlcTimingHisto {}
i0.defaultMemory.channel3.FRFCFS.channel3.rank0.bank7.subarray0.cancelCountHisto {}
i0.defaultMemory.channel3.FRFCFS.channel3.rank0.bank7.subarray0.wpPauseHisto {}
i0.defaultMemory.channel3.FRFCFS.channel3.rank0.bank7.subarray0.wpCancelHisto {}
i0.defaultMemory.channel3.FRFCFS.channel3.rank0.bank7.bankEnergy 0.17816nJ
i0.defaultMemory.channel3.FRFCFS.channel3.rank0.bank7.activeEnergy 0.0812nJ
i0.defaultMemory.channel3.FRFCFS.channel3.rank0.bank7.burstEnergy 0.09696nJ
i0.defaultMemory.channel3.FRFCFS.channel3.rank0.bank7.refreshEnergy 0nJ
i0.defaultMemory.channel3.FRFCFS.channel3.rank0.bank7.bankPower 641.553W
i0.defaultMemory.channel3.FRFCFS.channel3.rank0.bank7.activePower 292.401W
i0.defaultMemory.channel3.FRFCFS.channel3.rank0.bank7.burstPower 349.153W
i0.defaultMemory.channel3.FRFCFS.channel3.rank0.bank7.refreshPower 0W
i0.defaultMemory.channel3.FRFCFS.channel3.rank0.bank7.bandwidth 371.958MB/s
i0.defaultMemory.channel3.FRFCFS.channel3.rank0.bank7.dataCycles 240
i0.defaultMemory.channel3.FRFCFS.channel3.rank0.bank7.powerCycles 16518
i0.defaultMemory.channel3.FRFCFS.channel3.rank0.bank7.utilization 0.0145296
i0.defaultMemory.channel3.FRFCFS.channel3.rank0.bank7.reads 60
i0.defaultMemory.channel3.FRFCFS.channel3.rank0.bank7.writes 0
i0.defaultMemory.channel3.FRFCFS.channel3.rank0.bank7.activates 1
i0.defaultMemory.channel3.FRFCFS.channel3.rank0.bank7.precharges 0
i0.defaultMemory.channel3.FRFCFS.channel3.rank0.bank7.refreshes 0
i0.defaultMemory.channel3.FRFCFS.channel3.rank0.bank7.activeCycles 6931
i0.defaultMemory.channel3.FRFCFS.channel3.rank0.bank7.standbyCycles 9587
i0.defaultMemory.channel3.FRFCFS.channel3.rank0.bank7.fastExitActiveCycles 138379
i0.defaultMemory.channel3.FRFCFS.channel3.rank0.bank7.fastExitPrechargeCycles 122804
i0.defaultMemory.channel3.FRFCFS.channel3.rank0.bank7.slowExitPrechargeCycles 0
i0.defaultMemory.channel3.FRFCFS.channel3.rank0.bank7.actWaits 3
i0.defaultMemory.channel3.FRFCFS.channel3.rank0.bank7.actWaitTotal 6
i0.defaultMemory.channel3.FRFCFS.channel3.rank0.bank7.actWaitAverage 2
i0.defaultMemory.channel3.FRFCFS.channel3.rank0.bank7.averageEndurance 0
i0.defaultMemory.channel3.FRFCFS.channel3.rank0.bank7.worstCaseEndurance 18446744073709551615
i0.defaultMemory.channel3.FRFCFS.channel3.rank0.bank7.write_to_read_counter 1
i0.defaultMemory.channel3.FRFCFS.channel3.rank0.bank7.read_to_write_counter 0
i0.defaultMemory.channel3.FRFCFS.channel3.rank0.bank7.command_counter 518
i0.defaultMemory.channel3.FRFCFS.channel3.rank0.bank7.command_write_counter 0
i0.defaultMemory.channel3.FRFCFS.channel3.rank0.bank7.command_read_counter 60
i0.defaultMemory.channel3.FRFCFS.channel3.rank0.bank7.precharge_command_counter 0
i0.defaultMemory.channel3.FRFCFS.channel3.rank0.bank7.precharge_command_ratio 0
i0.defaultMemory.channel3.FRFCFS.channel3.rank0.bank7.bank_write_to_read_ratio 0.0166667
i0.defaultMemory.channel3.FRFCFS.channel3.rank0.bank7.command_per_request 8.63333
i0.defaultMemory.channel3.FRFCFS.channel3.rank0.bank7.bank_read_to_write_ratio 0
i0.defaultMemory.channel3.FRFCFS.channel3.rank0.totalEnergy 1645.24nJ
i0.defaultMemory.channel3.FRFCFS.channel3.rank0.backgroundEnergy 1478.76nJ
i0.defaultMemory.channel3.FRFCFS.channel3.rank0.activateEnergy 4.466nJ
i0.defaultMemory.channel3.FRFCFS.channel3.rank0.burstEnergy 162.01nJ
i0.defaultMemory.channel3.FRFCFS.channel3.rank0.refreshEnergy 0nJ
i0.defaultMemory.channel3.FRFCFS.channel3.rank0.totalPower 0.0023698W
i0.defaultMemory.channel3.FRFCFS.channel3.rank0.backgroundPower 0.00213001W
i0.defaultMemory.channel3.FRFCFS.channel3.rank0.activatePower 6.43282e-06W
i0.defaultMemory.channel3.FRFCFS.channel3.rank0.burstPower 0.000233359W
i0.defaultMemory.channel3.FRFCFS.channel3.rank0.refreshPower 0W
i0.defaultMemory.channel3.FRFCFS.channel3.rank0.reads 166
i0.defaultMemory.channel3.FRFCFS.channel3.rank0.writes 96
i0.defaultMemory.channel3.FRFCFS.channel3.rank0.activeCycles 15135
i0.defaultMemory.channel3.FRFCFS.channel3.rank0.standbyCycles 1383
i0.defaultMemory.channel3.FRFCFS.channel3.rank0.fastExitActiveCycles 259824
i0.defaultMemory.channel3.FRFCFS.channel3.rank0.fastExitPrechargeCycles 1359
i0.defaultMemory.channel3.FRFCFS.channel3.rank0.slowExitCycles 0
i0.defaultMemory.channel3.FRFCFS.channel3.rank0.actWaits 0
i0.defaultMemory.channel3.FRFCFS.channel3.rank0.actWaitTotal 0
i0.defaultMemory.channel3.FRFCFS.channel3.rank0.actWaitAverage -nan
i0.defaultMemory.channel3.FRFCFS.channel3.rank0.rrdWaits 0
i0.defaultMemory.channel3.FRFCFS.channel3.rank0.rrdWaitTotal 0
i0.defaultMemory.channel3.FRFCFS.channel3.rank0.rrdWaitAverage -nan
i0.defaultMemory.channel3.FRFCFS.channel3.rank0.fawWaits 0
i0.defaultMemory.channel3.FRFCFS.channel3.rank0.fawWaitTotal 0
i0.defaultMemory.channel3.FRFCFS.channel3.rank0.fawWaitAverage -nan
i0.defaultMemory.channel3.FRFCFS.mem_reads 166
i0.defaultMemory.channel3.FRFCFS.mem_writes 96
i0.defaultMemory.channel3.FRFCFS.rb_hits 207
i0.defaultMemory.channel3.FRFCFS.rb_miss 55
i0.defaultMemory.channel3.FRFCFS.starvation_precharges 12
i0.defaultMemory.channel3.FRFCFS.averageLatency 75.3321
i0.defaultMemory.channel3.FRFCFS.averageQueueLatency 17.9809
i0.defaultMemory.channel3.FRFCFS.averageTotalLatency 93.313
i0.defaultMemory.channel3.FRFCFS.measuredLatencies 262
i0.defaultMemory.channel3.FRFCFS.measuredQueueLatencies 262
i0.defaultMemory.channel3.FRFCFS.measuredTotalLatencies 262
i0.defaultMemory.channel3.FRFCFS.write_pauses 0
i0.defaultMemory.channel3.FRFCFS.averageReadTotalLatency 59.4217
i0.defaultMemory.channel3.FRFCFS.averageWriteTotalLatency 151.917
i0.defaultMemory.channel3.FRFCFS.averageReadQueueLatency 3.79518
i0.defaultMemory.channel3.FRFCFS.averageReadLatency 55.6265
i0.defaultMemory.channel3.FRFCFS.averageWriteQueueLatency 42.5104
i0.defaultMemory.channel3.FRFCFS.averageWriteLatency 109.406
i0.defaultMemory.channel3.FRFCFS.rb_write_hits 76
i0.defaultMemory.channel3.FRFCFS.rb_read_hits 131
i0.defaultMemory.channel3.FRFCFS.simulation_cycles 277701
i0.defaultMemory.channel3.FRFCFS.wakeupCount 0
i0.defaultMemory.totalReadRequests 10283
i0.defaultMemory.totalWriteRequests 1204
i0.defaultMemory.successfulPrefetches 0
i0.defaultMemory.unsuccessfulPrefetches 0
